<?xml version="1.0" encoding="UTF-8"?>
<!-- Auto-generated Traffic Pattern Library -->
<!-- Total Duration: 7200s (2.0 hours) -->
<!-- Network: h.net.xml -->
<routes>
    <vType id="passenger" accel="0.8" decel="4.5" length="5.0" minGap="2.5" maxSpeed="13.89" vClass="passenger" speedFactor="1.0" speedDev="0.1" jmIgnoreJunctionFoeProb="1.0" jmIgnoreKeepClearTime="-1" />

    <route id="route_0" edges="-151974158#1 -151974158#0" />
    <route id="route_1" edges="-151974158#1 -4789062#2" />
    <route id="route_2" edges="-4789062#2 -8084132#7" />
    <route id="route_3" edges="-4789062#2 -4789051#2" />
    <route id="route_4" edges="-4789062#2 8084132#12" />
    <route id="route_5" edges="-8084132#12 4789062#2" />
    <route id="route_6" edges="-8084132#12 -8084132#7" />
    <route id="route_7" edges="-8084132#12 -4789051#2" />
    <route id="route_8" edges="151974158#0 -4789062#2" />
    <route id="route_9" edges="151974158#0 151974158#1" />
    <route id="route_10" edges="4789051#2 8084132#12" />
    <route id="route_11" edges="4789051#2 4789062#2" />
    <route id="route_12" edges="4789051#2 -8084132#7" />
    <route id="route_13" edges="4789062#2 151974158#1" />
    <route id="route_14" edges="4789062#2 -151974158#0" />
    <route id="route_15" edges="8084132#7 -4789051#2" />
    <route id="route_16" edges="8084132#7 8084132#12" />
    <route id="route_17" edges="8084132#7 4789062#2" />


    <!-- Segment 1: BALANCED (DIR_A=1.0x DIR_B=1.0x DIR_C=1.0x DIR_D=1.0x DIR_E=1.0x DIR_F=1.0x DIR_G=1.0x) | 0-600s -->
    <vehicle id="veh_0" type="passenger" route="route_0" depart="2.74" />
    <vehicle id="veh_1" type="passenger" route="route_9" depart="6.44" />
    <vehicle id="veh_2" type="passenger" route="route_2" depart="7.66" />
    <vehicle id="veh_3" type="passenger" route="route_5" depart="10.54" />
    <vehicle id="veh_4" type="passenger" route="route_15" depart="13.39" />
    <vehicle id="veh_5" type="passenger" route="route_17" depart="13.58" />
    <vehicle id="veh_6" type="passenger" route="route_3" depart="13.95" />
    <vehicle id="veh_7" type="passenger" route="route_11" depart="15.47" />
    <vehicle id="veh_8" type="passenger" route="route_16" depart="16.00" />
    <vehicle id="veh_9" type="passenger" route="route_3" depart="23.62" />
    <vehicle id="veh_10" type="passenger" route="route_0" depart="25.42" />
    <vehicle id="veh_11" type="passenger" route="route_3" depart="25.46" />
    <vehicle id="veh_12" type="passenger" route="route_9" depart="31.77" />
    <vehicle id="veh_13" type="passenger" route="route_11" depart="32.14" />
    <vehicle id="veh_14" type="passenger" route="route_16" depart="32.47" />
    <vehicle id="veh_15" type="passenger" route="route_16" depart="33.91" />
    <vehicle id="veh_16" type="passenger" route="route_11" depart="35.04" />
    <vehicle id="veh_17" type="passenger" route="route_2" depart="37.50" />
    <vehicle id="veh_18" type="passenger" route="route_8" depart="39.41" />
    <vehicle id="veh_19" type="passenger" route="route_3" depart="41.89" />
    <vehicle id="veh_20" type="passenger" route="route_15" depart="42.11" />
    <vehicle id="veh_21" type="passenger" route="route_13" depart="42.58" />
    <vehicle id="veh_22" type="passenger" route="route_9" depart="43.16" />
    <vehicle id="veh_23" type="passenger" route="route_13" depart="43.23" />
    <vehicle id="veh_24" type="passenger" route="route_1" depart="44.32" />
    <vehicle id="veh_25" type="passenger" route="route_9" depart="48.73" />
    <vehicle id="veh_26" type="passenger" route="route_3" depart="49.07" />
    <vehicle id="veh_27" type="passenger" route="route_3" depart="51.93" />
    <vehicle id="veh_28" type="passenger" route="route_4" depart="53.24" />
    <vehicle id="veh_29" type="passenger" route="route_9" depart="53.75" />
    <vehicle id="veh_30" type="passenger" route="route_16" depart="57.28" />
    <vehicle id="veh_31" type="passenger" route="route_0" depart="66.64" />
    <vehicle id="veh_32" type="passenger" route="route_13" depart="67.98" />
    <vehicle id="veh_33" type="passenger" route="route_15" depart="69.49" />
    <vehicle id="veh_34" type="passenger" route="route_0" depart="76.75" />
    <vehicle id="veh_35" type="passenger" route="route_5" depart="77.61" />
    <vehicle id="veh_36" type="passenger" route="route_0" depart="80.25" />
    <vehicle id="veh_37" type="passenger" route="route_16" depart="81.99" />
    <vehicle id="veh_38" type="passenger" route="route_8" depart="82.07" />
    <vehicle id="veh_39" type="passenger" route="route_16" depart="84.86" />
    <vehicle id="veh_40" type="passenger" route="route_3" depart="86.78" />
    <vehicle id="veh_41" type="passenger" route="route_14" depart="86.92" />
    <vehicle id="veh_42" type="passenger" route="route_8" depart="87.11" />
    <vehicle id="veh_43" type="passenger" route="route_13" depart="87.39" />
    <vehicle id="veh_44" type="passenger" route="route_7" depart="88.32" />
    <vehicle id="veh_45" type="passenger" route="route_17" depart="88.39" />
    <vehicle id="veh_46" type="passenger" route="route_1" depart="90.11" />
    <vehicle id="veh_47" type="passenger" route="route_7" depart="90.77" />
    <vehicle id="veh_48" type="passenger" route="route_15" depart="99.62" />
    <vehicle id="veh_49" type="passenger" route="route_16" depart="101.18" />
    <vehicle id="veh_50" type="passenger" route="route_3" depart="102.84" />
    <vehicle id="veh_51" type="passenger" route="route_8" depart="102.90" />
    <vehicle id="veh_52" type="passenger" route="route_6" depart="106.42" />
    <vehicle id="veh_53" type="passenger" route="route_6" depart="107.51" />
    <vehicle id="veh_54" type="passenger" route="route_6" depart="109.22" />
    <vehicle id="veh_55" type="passenger" route="route_7" depart="112.02" />
    <vehicle id="veh_56" type="passenger" route="route_0" depart="112.81" />
    <vehicle id="veh_57" type="passenger" route="route_16" depart="115.11" />
    <vehicle id="veh_58" type="passenger" route="route_8" depart="118.01" />
    <vehicle id="veh_59" type="passenger" route="route_4" depart="120.42" />
    <vehicle id="veh_60" type="passenger" route="route_11" depart="121.34" />
    <vehicle id="veh_61" type="passenger" route="route_0" depart="122.08" />
    <vehicle id="veh_62" type="passenger" route="route_3" depart="122.92" />
    <vehicle id="veh_63" type="passenger" route="route_5" depart="125.42" />
    <vehicle id="veh_64" type="passenger" route="route_11" depart="128.72" />
    <vehicle id="veh_65" type="passenger" route="route_0" depart="130.76" />
    <vehicle id="veh_66" type="passenger" route="route_11" depart="133.41" />
    <vehicle id="veh_67" type="passenger" route="route_9" depart="135.06" />
    <vehicle id="veh_68" type="passenger" route="route_9" depart="135.68" />
    <vehicle id="veh_69" type="passenger" route="route_11" depart="141.99" />
    <vehicle id="veh_70" type="passenger" route="route_11" depart="142.32" />
    <vehicle id="veh_71" type="passenger" route="route_15" depart="148.14" />
    <vehicle id="veh_72" type="passenger" route="route_1" depart="150.70" />
    <vehicle id="veh_73" type="passenger" route="route_5" depart="151.26" />
    <vehicle id="veh_74" type="passenger" route="route_10" depart="152.14" />
    <vehicle id="veh_75" type="passenger" route="route_2" depart="155.88" />
    <vehicle id="veh_76" type="passenger" route="route_8" depart="159.64" />
    <vehicle id="veh_77" type="passenger" route="route_3" depart="162.24" />
    <vehicle id="veh_78" type="passenger" route="route_3" depart="164.92" />
    <vehicle id="veh_79" type="passenger" route="route_12" depart="165.17" />
    <vehicle id="veh_80" type="passenger" route="route_12" depart="166.16" />
    <vehicle id="veh_81" type="passenger" route="route_16" depart="166.47" />
    <vehicle id="veh_82" type="passenger" route="route_13" depart="167.38" />
    <vehicle id="veh_83" type="passenger" route="route_10" depart="168.40" />
    <vehicle id="veh_84" type="passenger" route="route_2" depart="168.54" />
    <vehicle id="veh_85" type="passenger" route="route_6" depart="170.25" />
    <vehicle id="veh_86" type="passenger" route="route_9" depart="174.48" />
    <vehicle id="veh_87" type="passenger" route="route_3" depart="175.03" />
    <vehicle id="veh_88" type="passenger" route="route_11" depart="178.59" />
    <vehicle id="veh_89" type="passenger" route="route_6" depart="182.09" />
    <vehicle id="veh_90" type="passenger" route="route_6" depart="182.35" />
    <vehicle id="veh_91" type="passenger" route="route_16" depart="182.67" />
    <vehicle id="veh_92" type="passenger" route="route_9" depart="182.96" />
    <vehicle id="veh_93" type="passenger" route="route_0" depart="184.85" />
    <vehicle id="veh_94" type="passenger" route="route_6" depart="186.23" />
    <vehicle id="veh_95" type="passenger" route="route_6" depart="191.77" />
    <vehicle id="veh_96" type="passenger" route="route_13" depart="192.75" />
    <vehicle id="veh_97" type="passenger" route="route_3" depart="196.88" />
    <vehicle id="veh_98" type="passenger" route="route_6" depart="197.32" />
    <vehicle id="veh_99" type="passenger" route="route_11" depart="202.17" />
    <vehicle id="veh_100" type="passenger" route="route_17" depart="203.35" />
    <vehicle id="veh_101" type="passenger" route="route_2" depart="205.30" />
    <vehicle id="veh_102" type="passenger" route="route_4" depart="205.32" />
    <vehicle id="veh_103" type="passenger" route="route_0" depart="207.37" />
    <vehicle id="veh_104" type="passenger" route="route_8" depart="208.84" />
    <vehicle id="veh_105" type="passenger" route="route_10" depart="209.51" />
    <vehicle id="veh_106" type="passenger" route="route_5" depart="211.74" />
    <vehicle id="veh_107" type="passenger" route="route_17" depart="212.69" />
    <vehicle id="veh_108" type="passenger" route="route_5" depart="214.53" />
    <vehicle id="veh_109" type="passenger" route="route_4" depart="214.73" />
    <vehicle id="veh_110" type="passenger" route="route_16" depart="215.35" />
    <vehicle id="veh_111" type="passenger" route="route_8" depart="217.22" />
    <vehicle id="veh_112" type="passenger" route="route_0" depart="220.66" />
    <vehicle id="veh_113" type="passenger" route="route_15" depart="223.04" />
    <vehicle id="veh_114" type="passenger" route="route_3" depart="223.55" />
    <vehicle id="veh_115" type="passenger" route="route_10" depart="223.89" />
    <vehicle id="veh_116" type="passenger" route="route_16" depart="224.31" />
    <vehicle id="veh_117" type="passenger" route="route_0" depart="225.37" />
    <vehicle id="veh_118" type="passenger" route="route_0" depart="225.88" />
    <vehicle id="veh_119" type="passenger" route="route_0" depart="226.38" />
    <vehicle id="veh_120" type="passenger" route="route_14" depart="231.15" />
    <vehicle id="veh_121" type="passenger" route="route_4" depart="231.61" />
    <vehicle id="veh_122" type="passenger" route="route_11" depart="232.65" />
    <vehicle id="veh_123" type="passenger" route="route_9" depart="234.33" />
    <vehicle id="veh_124" type="passenger" route="route_13" depart="235.17" />
    <vehicle id="veh_125" type="passenger" route="route_9" depart="236.47" />
    <vehicle id="veh_126" type="passenger" route="route_4" depart="238.96" />
    <vehicle id="veh_127" type="passenger" route="route_16" depart="239.75" />
    <vehicle id="veh_128" type="passenger" route="route_1" depart="242.22" />
    <vehicle id="veh_129" type="passenger" route="route_16" depart="242.52" />
    <vehicle id="veh_130" type="passenger" route="route_6" depart="244.27" />
    <vehicle id="veh_131" type="passenger" route="route_16" depart="244.42" />
    <vehicle id="veh_132" type="passenger" route="route_16" depart="245.45" />
    <vehicle id="veh_133" type="passenger" route="route_12" depart="251.74" />
    <vehicle id="veh_134" type="passenger" route="route_7" depart="252.40" />
    <vehicle id="veh_135" type="passenger" route="route_3" depart="253.71" />
    <vehicle id="veh_136" type="passenger" route="route_11" depart="257.61" />
    <vehicle id="veh_137" type="passenger" route="route_10" depart="258.90" />
    <vehicle id="veh_138" type="passenger" route="route_16" depart="259.11" />
    <vehicle id="veh_139" type="passenger" route="route_12" depart="260.35" />
    <vehicle id="veh_140" type="passenger" route="route_1" depart="260.75" />
    <vehicle id="veh_141" type="passenger" route="route_9" depart="261.28" />
    <vehicle id="veh_142" type="passenger" route="route_3" depart="262.41" />
    <vehicle id="veh_143" type="passenger" route="route_3" depart="263.08" />
    <vehicle id="veh_144" type="passenger" route="route_5" depart="263.54" />
    <vehicle id="veh_145" type="passenger" route="route_9" depart="263.71" />
    <vehicle id="veh_146" type="passenger" route="route_9" depart="267.74" />
    <vehicle id="veh_147" type="passenger" route="route_9" depart="269.34" />
    <vehicle id="veh_148" type="passenger" route="route_9" depart="269.41" />
    <vehicle id="veh_149" type="passenger" route="route_3" depart="269.83" />
    <vehicle id="veh_150" type="passenger" route="route_14" depart="270.20" />
    <vehicle id="veh_151" type="passenger" route="route_16" depart="270.52" />
    <vehicle id="veh_152" type="passenger" route="route_7" depart="273.24" />
    <vehicle id="veh_153" type="passenger" route="route_16" depart="273.74" />
    <vehicle id="veh_154" type="passenger" route="route_12" depart="274.57" />
    <vehicle id="veh_155" type="passenger" route="route_9" depart="274.59" />
    <vehicle id="veh_156" type="passenger" route="route_6" depart="274.79" />
    <vehicle id="veh_157" type="passenger" route="route_0" depart="275.94" />
    <vehicle id="veh_158" type="passenger" route="route_7" depart="276.30" />
    <vehicle id="veh_159" type="passenger" route="route_9" depart="279.96" />
    <vehicle id="veh_160" type="passenger" route="route_0" depart="283.25" />
    <vehicle id="veh_161" type="passenger" route="route_9" depart="284.57" />
    <vehicle id="veh_162" type="passenger" route="route_6" depart="285.45" />
    <vehicle id="veh_163" type="passenger" route="route_11" depart="286.24" />
    <vehicle id="veh_164" type="passenger" route="route_17" depart="286.56" />
    <vehicle id="veh_165" type="passenger" route="route_11" depart="287.91" />
    <vehicle id="veh_166" type="passenger" route="route_3" depart="288.67" />
    <vehicle id="veh_167" type="passenger" route="route_15" depart="290.90" />
    <vehicle id="veh_168" type="passenger" route="route_0" depart="291.08" />
    <vehicle id="veh_169" type="passenger" route="route_9" depart="293.08" />
    <vehicle id="veh_170" type="passenger" route="route_7" depart="293.20" />
    <vehicle id="veh_171" type="passenger" route="route_9" depart="293.74" />
    <vehicle id="veh_172" type="passenger" route="route_5" depart="297.84" />
    <vehicle id="veh_173" type="passenger" route="route_3" depart="299.89" />
    <vehicle id="veh_174" type="passenger" route="route_12" depart="300.00" />
    <vehicle id="veh_175" type="passenger" route="route_13" depart="300.35" />
    <vehicle id="veh_176" type="passenger" route="route_8" depart="302.98" />
    <vehicle id="veh_177" type="passenger" route="route_11" depart="306.71" />
    <vehicle id="veh_178" type="passenger" route="route_9" depart="307.91" />
    <vehicle id="veh_179" type="passenger" route="route_5" depart="314.01" />
    <vehicle id="veh_180" type="passenger" route="route_6" depart="315.71" />
    <vehicle id="veh_181" type="passenger" route="route_6" depart="315.89" />
    <vehicle id="veh_182" type="passenger" route="route_3" depart="315.90" />
    <vehicle id="veh_183" type="passenger" route="route_15" depart="315.92" />
    <vehicle id="veh_184" type="passenger" route="route_9" depart="318.91" />
    <vehicle id="veh_185" type="passenger" route="route_11" depart="321.15" />
    <vehicle id="veh_186" type="passenger" route="route_0" depart="323.44" />
    <vehicle id="veh_187" type="passenger" route="route_1" depart="323.85" />
    <vehicle id="veh_188" type="passenger" route="route_3" depart="325.36" />
    <vehicle id="veh_189" type="passenger" route="route_5" depart="325.61" />
    <vehicle id="veh_190" type="passenger" route="route_0" depart="327.66" />
    <vehicle id="veh_191" type="passenger" route="route_6" depart="329.74" />
    <vehicle id="veh_192" type="passenger" route="route_15" depart="331.20" />
    <vehicle id="veh_193" type="passenger" route="route_0" depart="331.20" />
    <vehicle id="veh_194" type="passenger" route="route_0" depart="332.38" />
    <vehicle id="veh_195" type="passenger" route="route_17" depart="332.80" />
    <vehicle id="veh_196" type="passenger" route="route_7" depart="333.02" />
    <vehicle id="veh_197" type="passenger" route="route_6" depart="334.13" />
    <vehicle id="veh_198" type="passenger" route="route_3" depart="339.06" />
    <vehicle id="veh_199" type="passenger" route="route_13" depart="340.74" />
    <vehicle id="veh_200" type="passenger" route="route_6" depart="340.80" />
    <vehicle id="veh_201" type="passenger" route="route_13" depart="340.89" />
    <vehicle id="veh_202" type="passenger" route="route_0" depart="341.77" />
    <vehicle id="veh_203" type="passenger" route="route_5" depart="349.33" />
    <vehicle id="veh_204" type="passenger" route="route_17" depart="349.65" />
    <vehicle id="veh_205" type="passenger" route="route_9" depart="349.96" />
    <vehicle id="veh_206" type="passenger" route="route_3" depart="350.55" />
    <vehicle id="veh_207" type="passenger" route="route_0" depart="351.27" />
    <vehicle id="veh_208" type="passenger" route="route_16" depart="351.53" />
    <vehicle id="veh_209" type="passenger" route="route_6" depart="353.02" />
    <vehicle id="veh_210" type="passenger" route="route_12" depart="354.26" />
    <vehicle id="veh_211" type="passenger" route="route_15" depart="355.19" />
    <vehicle id="veh_212" type="passenger" route="route_0" depart="357.79" />
    <vehicle id="veh_213" type="passenger" route="route_7" depart="360.91" />
    <vehicle id="veh_214" type="passenger" route="route_16" depart="363.76" />
    <vehicle id="veh_215" type="passenger" route="route_6" depart="363.85" />
    <vehicle id="veh_216" type="passenger" route="route_16" depart="364.11" />
    <vehicle id="veh_217" type="passenger" route="route_8" depart="364.90" />
    <vehicle id="veh_218" type="passenger" route="route_1" depart="365.64" />
    <vehicle id="veh_219" type="passenger" route="route_11" depart="366.49" />
    <vehicle id="veh_220" type="passenger" route="route_11" depart="368.64" />
    <vehicle id="veh_221" type="passenger" route="route_11" depart="368.83" />
    <vehicle id="veh_222" type="passenger" route="route_5" depart="371.43" />
    <vehicle id="veh_223" type="passenger" route="route_4" depart="371.64" />
    <vehicle id="veh_224" type="passenger" route="route_6" depart="371.77" />
    <vehicle id="veh_225" type="passenger" route="route_10" depart="372.74" />
    <vehicle id="veh_226" type="passenger" route="route_11" depart="373.19" />
    <vehicle id="veh_227" type="passenger" route="route_3" depart="373.20" />
    <vehicle id="veh_228" type="passenger" route="route_3" depart="374.44" />
    <vehicle id="veh_229" type="passenger" route="route_2" depart="376.45" />
    <vehicle id="veh_230" type="passenger" route="route_8" depart="376.89" />
    <vehicle id="veh_231" type="passenger" route="route_9" depart="377.24" />
    <vehicle id="veh_232" type="passenger" route="route_2" depart="380.34" />
    <vehicle id="veh_233" type="passenger" route="route_0" depart="380.51" />
    <vehicle id="veh_234" type="passenger" route="route_5" depart="382.13" />
    <vehicle id="veh_235" type="passenger" route="route_9" depart="383.31" />
    <vehicle id="veh_236" type="passenger" route="route_0" depart="385.85" />
    <vehicle id="veh_237" type="passenger" route="route_11" depart="386.98" />
    <vehicle id="veh_238" type="passenger" route="route_16" depart="388.92" />
    <vehicle id="veh_239" type="passenger" route="route_16" depart="390.91" />
    <vehicle id="veh_240" type="passenger" route="route_6" depart="391.87" />
    <vehicle id="veh_241" type="passenger" route="route_5" depart="394.66" />
    <vehicle id="veh_242" type="passenger" route="route_0" depart="398.14" />
    <vehicle id="veh_243" type="passenger" route="route_11" depart="401.54" />
    <vehicle id="veh_244" type="passenger" route="route_11" depart="402.02" />
    <vehicle id="veh_245" type="passenger" route="route_9" depart="402.64" />
    <vehicle id="veh_246" type="passenger" route="route_1" depart="403.81" />
    <vehicle id="veh_247" type="passenger" route="route_12" depart="408.75" />
    <vehicle id="veh_248" type="passenger" route="route_6" depart="409.37" />
    <vehicle id="veh_249" type="passenger" route="route_11" depart="409.97" />
    <vehicle id="veh_250" type="passenger" route="route_15" depart="410.99" />
    <vehicle id="veh_251" type="passenger" route="route_3" depart="411.72" />
    <vehicle id="veh_252" type="passenger" route="route_9" depart="414.95" />
    <vehicle id="veh_253" type="passenger" route="route_0" depart="419.07" />
    <vehicle id="veh_254" type="passenger" route="route_3" depart="419.11" />
    <vehicle id="veh_255" type="passenger" route="route_2" depart="419.40" />
    <vehicle id="veh_256" type="passenger" route="route_6" depart="420.11" />
    <vehicle id="veh_257" type="passenger" route="route_14" depart="421.37" />
    <vehicle id="veh_258" type="passenger" route="route_10" depart="422.76" />
    <vehicle id="veh_259" type="passenger" route="route_0" depart="423.83" />
    <vehicle id="veh_260" type="passenger" route="route_14" depart="424.28" />
    <vehicle id="veh_261" type="passenger" route="route_3" depart="425.34" />
    <vehicle id="veh_262" type="passenger" route="route_3" depart="431.93" />
    <vehicle id="veh_263" type="passenger" route="route_10" depart="433.24" />
    <vehicle id="veh_264" type="passenger" route="route_9" depart="435.16" />
    <vehicle id="veh_265" type="passenger" route="route_16" depart="435.84" />
    <vehicle id="veh_266" type="passenger" route="route_8" depart="436.57" />
    <vehicle id="veh_267" type="passenger" route="route_0" depart="436.99" />
    <vehicle id="veh_268" type="passenger" route="route_16" depart="437.10" />
    <vehicle id="veh_269" type="passenger" route="route_15" depart="441.25" />
    <vehicle id="veh_270" type="passenger" route="route_1" depart="442.81" />
    <vehicle id="veh_271" type="passenger" route="route_0" depart="443.45" />
    <vehicle id="veh_272" type="passenger" route="route_0" depart="445.39" />
    <vehicle id="veh_273" type="passenger" route="route_6" depart="446.90" />
    <vehicle id="veh_274" type="passenger" route="route_8" depart="447.08" />
    <vehicle id="veh_275" type="passenger" route="route_9" depart="447.83" />
    <vehicle id="veh_276" type="passenger" route="route_16" depart="448.88" />
    <vehicle id="veh_277" type="passenger" route="route_11" depart="449.90" />
    <vehicle id="veh_278" type="passenger" route="route_11" depart="450.22" />
    <vehicle id="veh_279" type="passenger" route="route_2" depart="455.15" />
    <vehicle id="veh_280" type="passenger" route="route_0" depart="456.33" />
    <vehicle id="veh_281" type="passenger" route="route_8" depart="462.52" />
    <vehicle id="veh_282" type="passenger" route="route_0" depart="467.93" />
    <vehicle id="veh_283" type="passenger" route="route_4" depart="468.13" />
    <vehicle id="veh_284" type="passenger" route="route_9" depart="469.78" />
    <vehicle id="veh_285" type="passenger" route="route_4" depart="475.18" />
    <vehicle id="veh_286" type="passenger" route="route_15" depart="475.56" />
    <vehicle id="veh_287" type="passenger" route="route_3" depart="475.77" />
    <vehicle id="veh_288" type="passenger" route="route_0" depart="475.89" />
    <vehicle id="veh_289" type="passenger" route="route_5" depart="479.84" />
    <vehicle id="veh_290" type="passenger" route="route_0" depart="481.01" />
    <vehicle id="veh_291" type="passenger" route="route_3" depart="483.20" />
    <vehicle id="veh_292" type="passenger" route="route_9" depart="485.47" />
    <vehicle id="veh_293" type="passenger" route="route_4" depart="489.47" />
    <vehicle id="veh_294" type="passenger" route="route_2" depart="489.61" />
    <vehicle id="veh_295" type="passenger" route="route_0" depart="489.75" />
    <vehicle id="veh_296" type="passenger" route="route_6" depart="490.59" />
    <vehicle id="veh_297" type="passenger" route="route_11" depart="490.66" />
    <vehicle id="veh_298" type="passenger" route="route_0" depart="494.67" />
    <vehicle id="veh_299" type="passenger" route="route_16" depart="495.85" />
    <vehicle id="veh_300" type="passenger" route="route_1" depart="497.81" />
    <vehicle id="veh_301" type="passenger" route="route_2" depart="498.66" />
    <vehicle id="veh_302" type="passenger" route="route_2" depart="505.45" />
    <vehicle id="veh_303" type="passenger" route="route_9" depart="506.70" />
    <vehicle id="veh_304" type="passenger" route="route_1" depart="508.23" />
    <vehicle id="veh_305" type="passenger" route="route_3" depart="508.52" />
    <vehicle id="veh_306" type="passenger" route="route_11" depart="511.28" />
    <vehicle id="veh_307" type="passenger" route="route_14" depart="516.85" />
    <vehicle id="veh_308" type="passenger" route="route_14" depart="517.44" />
    <vehicle id="veh_309" type="passenger" route="route_9" depart="518.78" />
    <vehicle id="veh_310" type="passenger" route="route_16" depart="521.83" />
    <vehicle id="veh_311" type="passenger" route="route_11" depart="522.19" />
    <vehicle id="veh_312" type="passenger" route="route_12" depart="524.01" />
    <vehicle id="veh_313" type="passenger" route="route_9" depart="525.09" />
    <vehicle id="veh_314" type="passenger" route="route_16" depart="529.50" />
    <vehicle id="veh_315" type="passenger" route="route_5" depart="530.02" />
    <vehicle id="veh_316" type="passenger" route="route_0" depart="533.99" />
    <vehicle id="veh_317" type="passenger" route="route_1" depart="538.46" />
    <vehicle id="veh_318" type="passenger" route="route_0" depart="539.55" />
    <vehicle id="veh_319" type="passenger" route="route_15" depart="539.75" />
    <vehicle id="veh_320" type="passenger" route="route_10" depart="543.15" />
    <vehicle id="veh_321" type="passenger" route="route_5" depart="544.16" />
    <vehicle id="veh_322" type="passenger" route="route_16" depart="544.47" />
    <vehicle id="veh_323" type="passenger" route="route_13" depart="544.62" />
    <vehicle id="veh_324" type="passenger" route="route_9" depart="545.28" />
    <vehicle id="veh_325" type="passenger" route="route_16" depart="546.39" />
    <vehicle id="veh_326" type="passenger" route="route_5" depart="546.54" />
    <vehicle id="veh_327" type="passenger" route="route_3" depart="547.25" />
    <vehicle id="veh_328" type="passenger" route="route_2" depart="549.10" />
    <vehicle id="veh_329" type="passenger" route="route_10" depart="549.34" />
    <vehicle id="veh_330" type="passenger" route="route_11" depart="550.59" />
    <vehicle id="veh_331" type="passenger" route="route_15" depart="550.94" />
    <vehicle id="veh_332" type="passenger" route="route_4" depart="552.04" />
    <vehicle id="veh_333" type="passenger" route="route_6" depart="553.44" />
    <vehicle id="veh_334" type="passenger" route="route_2" depart="556.12" />
    <vehicle id="veh_335" type="passenger" route="route_6" depart="556.79" />
    <vehicle id="veh_336" type="passenger" route="route_0" depart="557.36" />
    <vehicle id="veh_337" type="passenger" route="route_16" depart="557.52" />
    <vehicle id="veh_338" type="passenger" route="route_14" depart="561.07" />
    <vehicle id="veh_339" type="passenger" route="route_16" depart="561.53" />
    <vehicle id="veh_340" type="passenger" route="route_3" depart="565.30" />
    <vehicle id="veh_341" type="passenger" route="route_3" depart="566.24" />
    <vehicle id="veh_342" type="passenger" route="route_3" depart="566.63" />
    <vehicle id="veh_343" type="passenger" route="route_9" depart="571.66" />
    <vehicle id="veh_344" type="passenger" route="route_4" depart="572.12" />
    <vehicle id="veh_345" type="passenger" route="route_16" depart="572.50" />
    <vehicle id="veh_346" type="passenger" route="route_5" depart="572.74" />
    <vehicle id="veh_347" type="passenger" route="route_14" depart="573.58" />
    <vehicle id="veh_348" type="passenger" route="route_0" depart="573.77" />
    <vehicle id="veh_349" type="passenger" route="route_17" depart="575.26" />
    <vehicle id="veh_350" type="passenger" route="route_16" depart="575.77" />
    <vehicle id="veh_351" type="passenger" route="route_16" depart="577.05" />
    <vehicle id="veh_352" type="passenger" route="route_11" depart="577.82" />
    <vehicle id="veh_353" type="passenger" route="route_7" depart="579.14" />
    <vehicle id="veh_354" type="passenger" route="route_3" depart="579.40" />
    <vehicle id="veh_355" type="passenger" route="route_3" depart="582.17" />
    <vehicle id="veh_356" type="passenger" route="route_5" depart="584.18" />
    <vehicle id="veh_357" type="passenger" route="route_4" depart="584.85" />
    <vehicle id="veh_358" type="passenger" route="route_11" depart="585.24" />
    <vehicle id="veh_359" type="passenger" route="route_9" depart="585.42" />
    <vehicle id="veh_360" type="passenger" route="route_16" depart="585.58" />
    <vehicle id="veh_361" type="passenger" route="route_3" depart="586.88" />
    <vehicle id="veh_362" type="passenger" route="route_3" depart="587.28" />
    <vehicle id="veh_363" type="passenger" route="route_6" depart="590.19" />
    <vehicle id="veh_364" type="passenger" route="route_9" depart="591.34" />