<?xml version="1.0" encoding="UTF-8"?>

<!-- generated on 2026-02-11T22:47:36.111831+01:00 by Eclipse SUMO netconvert 1.25.0
<netconvertConfiguration xmlns:xsi="http://www.w3.org/2001/XMLSchema-instance" xsi:noNamespaceSchemaLocation="http://sumo.dlr.de/xsd/netconvertConfiguration.xsd">

    <input>
        <sumo-net-file value="berlin-small.net.xml"/>
    </input>

    <output>
        <output-file value="H/H.net.xml"/>
    </output>

    <processing>
        <geometry.min-radius.fix.railways value="false"/>
        <geometry.avoid-overlap value="false"/>
        <geometry.max-grade.fix value="false"/>
        <offset.disable-normalization value="true"/>
        <lefthand value="0"/>
    </processing>

    <edge_removal>
        <keep-edges.in-boundary value="22620.60,15698.20,22836.55,15550.17"/>
    </edge_removal>

    <junctions>
        <no-turnarounds value="true"/>
        <junctions.corner-detail value="5"/>
        <junctions.limit-turn-speed value="5.50"/>
        <rectangular-lane-cut value="0"/>
    </junctions>

    <pedestrian>
        <walkingareas value="0"/>
    </pedestrian>

</netconvertConfiguration>
-->

<net version="1.20" junctionCornerDetail="5" limitTurnSpeed="5.50" avoidOverlap="0" xmlns:xsi="http://www.w3.org/2001/XMLSchema-instance" xsi:noNamespaceSchemaLocation="http://sumo.dlr.de/xsd/net_file.xsd">

    <location netOffset="-372355.98,-5804722.35" convBoundary="22511.73,15516.73,22876.46,15891.09" origBoundary="13.122591,52.383149,13.502221,52.618113" projParameter="+proj=utm +zone=33 +ellps=WGS84 +datum=WGS84 +units=m +no_defs"/>

    <type id="highway.residential" priority="3" numLanes="1" speed="13.89" disallow="tram rail_urban rail rail_electric rail_fast ship container cable_car subway aircraft wheelchair scooter drone" oneway="0"/>
    <type id="highway.tertiary" priority="10" numLanes="1" speed="22.22" disallow="tram rail_urban rail rail_electric rail_fast ship container cable_car subway aircraft wheelchair scooter drone" oneway="0"/>

    <edge id=":29784656_0" function="internal">
        <lane id=":29784656_0_0" index="0" disallow="tram rail_urban rail rail_electric rail_fast ship cable_car subway" speed="8.33" length="14.34" shape="22827.15,15656.95 22821.81,15670.26"/>
    </edge>
    <edge id=":29784656_1" function="internal">
        <lane id=":29784656_1_0" index="0" disallow="tram rail_urban rail rail_electric rail_fast ship cable_car subway" speed="8.06" length="14.19" shape="22827.15,15656.95 22825.20,15660.27 22822.63,15662.20 22819.45,15662.72 22815.65,15661.85"/>
    </edge>
    <edge id=":29784656_2" function="internal">
        <lane id=":29784656_2_0" index="0" disallow="tram rail_urban rail rail_electric rail_fast ship cable_car subway" speed="6.57" length="9.10" shape="22816.80,15658.86 22819.24,15659.43 22821.29,15659.10 22822.93,15657.87 22824.19,15655.74"/>
    </edge>
    <edge id=":29784656_3" function="internal">
        <lane id=":29784656_3_0" index="0" disallow="tram rail_urban rail rail_electric rail_fast ship cable_car subway" speed="7.99" length="14.22" shape="22816.80,15658.86 22820.21,15660.76 22822.18,15663.30 22822.71,15666.46 22821.81,15670.26"/>
    </edge>
    <edge id=":29784656_4" function="internal">
        <lane id=":29784656_4_0" index="0" disallow="tram rail_urban rail rail_electric rail_fast ship cable_car subway" speed="6.49" length="9.03" shape="22818.83,15669.08 22819.40,15666.67 22819.07,15664.66 22817.82,15663.05 22815.65,15661.85"/>
    </edge>
    <edge id=":29784656_5" function="internal">
        <lane id=":29784656_5_0" index="0" disallow="tram rail_urban rail rail_electric rail_fast ship cable_car subway" speed="8.33" length="14.38" shape="22818.83,15669.08 22824.19,15655.74"/>
    </edge>
    <edge id=":cluster_29784655_5960120416_5960120417_5960120418_5960120419_5960120420_5960120421_5960120422_5960120423_0" function="internal">
        <lane id=":cluster_29784655_5960120416_5960120417_5960120418_5960120419_5960120420_5960120421_5960120422_5960120423_0_0" index="0" disallow="tram rail_urban rail rail_electric rail_fast ship cable_car subway" speed="9.89" length="22.11" shape="22737.58,15631.76 22732.68,15630.95 22728.34,15632.51 22724.56,15636.44 22721.34,15642.73"/>
    </edge>
    <edge id=":cluster_29784655_5960120416_5960120417_5960120418_5960120419_5960120420_5960120421_5960120422_5960120423_1" function="internal">
        <lane id=":cluster_29784655_5960120416_5960120417_5960120418_5960120419_5960120420_5960120421_5960120422_5960120423_1_0" index="0" disallow="tram rail_urban rail rail_electric rail_fast ship cable_car subway" speed="8.33" length="25.61" shape="22737.58,15631.76 22713.73,15622.45"/>
    </edge>
    <edge id=":cluster_29784655_5960120416_5960120417_5960120418_5960120419_5960120420_5960120421_5960120422_5960120423_2" function="internal">
        <lane id=":cluster_29784655_5960120416_5960120417_5960120418_5960120419_5960120420_5960120421_5960120422_5960120423_2_0" index="0" disallow="tram rail_urban rail rail_electric rail_fast ship cable_car subway" speed="10.36" length="4.57" shape="22737.58,15631.76 22733.64,15629.46"/>
    </edge>
    <edge id=":cluster_29784655_5960120416_5960120417_5960120418_5960120419_5960120420_5960120421_5960120422_5960120423_12" function="internal">
        <lane id=":cluster_29784655_5960120416_5960120417_5960120418_5960120419_5960120420_5960120421_5960120422_5960120423_12_0" index="0" disallow="tram rail_urban rail rail_electric rail_fast ship cable_car subway" speed="10.36" length="20.06" shape="22733.64,15629.46 22732.11,15628.57 22729.04,15624.12 22728.39,15618.43 22730.14,15611.50"/>
    </edge>
    <edge id=":cluster_29784655_5960120416_5960120417_5960120418_5960120419_5960120420_5960120421_5960120422_5960120423_3" function="internal">
        <lane id=":cluster_29784655_5960120416_5960120417_5960120418_5960120419_5960120420_5960120421_5960120422_5960120423_3_0" index="0" disallow="tram rail_urban rail rail_electric rail_fast ship cable_car subway" speed="9.26" length="19.45" shape="22733.12,15612.66 22731.69,15618.22 22732.15,15622.75 22734.50,15626.27 22738.74,15628.78"/>
    </edge>
    <edge id=":cluster_29784655_5960120416_5960120417_5960120418_5960120419_5960120420_5960120421_5960120422_5960120423_4" function="internal">
        <lane id=":cluster_29784655_5960120416_5960120417_5960120418_5960120419_5960120420_5960120421_5960120422_5960120423_4_0" index="0" disallow="tram rail_urban rail rail_electric rail_fast ship cable_car subway" speed="13.89" length="32.30" shape="22733.12,15612.66 22721.34,15642.73"/>
    </edge>
    <edge id=":cluster_29784655_5960120416_5960120417_5960120418_5960120419_5960120420_5960120421_5960120422_5960120423_5" function="internal">
        <lane id=":cluster_29784655_5960120416_5960120417_5960120418_5960120419_5960120420_5960120421_5960120422_5960120423_5_0" index="0" disallow="tram rail_urban rail rail_electric rail_fast ship cable_car subway" speed="10.42" length="5.57" shape="22733.12,15612.66 22730.44,15617.55"/>
    </edge>
    <edge id=":cluster_29784655_5960120416_5960120417_5960120418_5960120419_5960120420_5960120421_5960120422_5960120423_13" function="internal">
        <lane id=":cluster_29784655_5960120416_5960120417_5960120418_5960120419_5960120420_5960120421_5960120422_5960120423_13_0" index="0" disallow="tram rail_urban rail rail_electric rail_fast ship cable_car subway" speed="10.42" length="19.16" shape="22730.44,15617.55 22729.70,15618.92 22725.33,15622.63 22720.00,15623.81 22713.73,15622.45"/>
    </edge>
    <edge id=":cluster_29784655_5960120416_5960120417_5960120418_5960120419_5960120420_5960120421_5960120422_5960120423_6" function="internal">
        <lane id=":cluster_29784655_5960120416_5960120417_5960120418_5960120419_5960120420_5960120421_5960120422_5960120423_6_0" index="0" disallow="tram rail_urban rail rail_electric rail_fast ship cable_car subway" speed="9.32" length="19.59" shape="22714.89,15619.47 22719.79,15620.51 22723.96,15619.53 22727.41,15616.52 22730.14,15611.50"/>
    </edge>
    <edge id=":cluster_29784655_5960120416_5960120417_5960120418_5960120419_5960120420_5960120421_5960120422_5960120423_7" function="internal">
        <lane id=":cluster_29784655_5960120416_5960120417_5960120418_5960120419_5960120420_5960120421_5960120422_5960120423_7_0" index="0" disallow="tram rail_urban rail rail_electric rail_fast ship cable_car subway" speed="8.33" length="25.60" shape="22714.89,15619.47 22738.74,15628.78"/>
    </edge>
    <edge id=":cluster_29784655_5960120416_5960120417_5960120418_5960120419_5960120420_5960120421_5960120422_5960120423_8" function="internal">
        <lane id=":cluster_29784655_5960120416_5960120417_5960120418_5960120419_5960120420_5960120421_5960120422_5960120423_8_0" index="0" disallow="tram rail_urban rail rail_electric rail_fast ship cable_car subway" speed="10.92" length="3.84" shape="22714.89,15619.47 22718.14,15621.51"/>
    </edge>
    <edge id=":cluster_29784655_5960120416_5960120417_5960120418_5960120419_5960120420_5960120421_5960120422_5960120423_14" function="internal">
        <lane id=":cluster_29784655_5960120416_5960120417_5960120418_5960120419_5960120420_5960120421_5960120422_5960120423_14_0" index="0" disallow="tram rail_urban rail rail_electric rail_fast ship cable_car subway" speed="10.92" length="23.54" shape="22718.14,15621.51 22720.36,15622.90 22723.26,15627.92 22723.58,15634.53 22721.34,15642.73"/>
    </edge>
    <edge id=":cluster_29784655_5960120416_5960120417_5960120418_5960120419_5960120420_5960120421_5960120422_5960120423_9" function="internal">
        <lane id=":cluster_29784655_5960120416_5960120417_5960120418_5960120419_5960120420_5960120421_5960120422_5960120423_9_0" index="0" disallow="tram rail_urban rail rail_electric rail_fast ship cable_car subway" speed="9.88" length="22.23" shape="22718.36,15641.57 22720.28,15634.74 22720.15,15629.28 22717.96,15625.18 22713.73,15622.45"/>
    </edge>
    <edge id=":cluster_29784655_5960120416_5960120417_5960120418_5960120419_5960120420_5960120421_5960120422_5960120423_10" function="internal">
        <lane id=":cluster_29784655_5960120416_5960120417_5960120418_5960120419_5960120420_5960120421_5960120422_5960120423_10_0" index="0" disallow="tram rail_urban rail rail_electric rail_fast ship cable_car subway" speed="13.89" length="32.29" shape="22718.36,15641.57 22730.14,15611.50"/>
    </edge>
    <edge id=":cluster_29784655_5960120416_5960120417_5960120418_5960120419_5960120420_5960120421_5960120422_5960120423_11" function="internal">
        <lane id=":cluster_29784655_5960120416_5960120417_5960120418_5960120419_5960120420_5960120421_5960120422_5960120423_11_0" index="0" disallow="tram rail_urban rail rail_electric rail_fast ship cable_car subway" speed="10.92" length="6.66" shape="22718.36,15641.57 22721.43,15635.66"/>
    </edge>
    <edge id=":cluster_29784655_5960120416_5960120417_5960120418_5960120419_5960120420_5960120421_5960120422_5960120423_15" function="internal">
        <lane id=":cluster_29784655_5960120416_5960120417_5960120418_5960120419_5960120420_5960120421_5960120422_5960120423_15_0" index="0" disallow="tram rail_urban rail rail_electric rail_fast ship cable_car subway" speed="10.92" length="20.56" shape="22721.43,15635.66 22722.27,15634.04 22726.97,15629.40 22732.46,15627.65 22738.74,15628.78"/>
    </edge>

    <edge id="-151974158#0" from="29784656" to="1425174748" priority="3" type="highway.residential" shape="22822.97,15662.95 22790.30,15745.79 22781.83,15768.38 22738.96,15886.33 22737.10,15891.09">
        <lane id="-151974158#0_0" index="0" disallow="tram rail_urban rail rail_electric rail_fast ship cable_car subway" speed="8.33" length="236.55" shape="22821.81,15670.26 22791.79,15746.36 22783.33,15768.93 22740.46,15886.89 22738.59,15891.67"/>
    </edge>
    <edge id="-151974158#1" from="cluster_3619264760_3619264761" to="29784656" priority="3" type="highway.residential" shape="22876.46,15528.80 22870.12,15547.39 22822.97,15662.95">
        <lane id="-151974158#1_0" index="0" disallow="tram rail_urban rail rail_electric rail_fast ship cable_car subway" speed="8.33" length="147.02" shape="22881.08,15520.22 22871.62,15547.95 22827.15,15656.95"/>
    </edge>
    <edge id="-4789051#2" from="cluster_29784655_5960120416_5960120417_5960120418_5960120419_5960120420_5960120421_5960120422_5960120423" to="cluster_12614653_1882193216_1882193222_29271706_4377814000_4377814001_4377814002_4377814003_4377814004_4377814005_4377814006_4377814007" priority="3" type="highway.residential" shape="22714.31,15620.96 22540.66,15553.31">
        <lane id="-4789051#2_0" index="0" disallow="tram rail_urban rail rail_electric rail_fast ship cable_car subway" speed="8.33" length="217.88" shape="22713.73,15622.45 22510.71,15543.36"/>
    </edge>
    <edge id="-4789062#2" from="29784656" to="cluster_29784655_5960120416_5960120417_5960120418_5960120419_5960120420_5960120421_5960120422_5960120423" priority="3" type="highway.residential" shape="22822.97,15662.95 22738.16,15630.27">
        <lane id="-4789062#2_0" index="0" disallow="tram rail_urban rail rail_electric rail_fast ship cable_car subway" speed="8.33" length="83.66" shape="22815.65,15661.85 22737.58,15631.76"/>
    </edge>
    <edge id="-8084132#12" from="29784665" to="cluster_29784655_5960120416_5960120417_5960120418_5960120419_5960120420_5960120421_5960120422_5960120423" priority="10" type="highway.tertiary" shape="22768.23,15518.62 22731.63,15612.08">
        <lane id="-8084132#12_0" index="0" disallow="tram rail_urban rail rail_electric rail_fast ship cable_car subway" speed="13.89" length="100.37" shape="22769.72,15519.20 22733.12,15612.66"/>
    </edge>
    <edge id="-8084132#7" from="cluster_29784655_5960120416_5960120417_5960120418_5960120419_5960120420_5960120421_5960120422_5960120423" to="29784653" priority="10" type="highway.tertiary" shape="22719.85,15642.15 22681.58,15739.70">
        <lane id="-8084132#7_0" index="0" disallow="tram rail_urban rail rail_electric rail_fast ship cable_car subway" speed="13.89" length="104.79" shape="22721.34,15642.73 22683.07,15740.28"/>
    </edge>
    <edge id="151974158#0" from="1425174748" to="29784656" priority="3" type="highway.residential" shape="22737.10,15891.09 22738.96,15886.33 22781.83,15768.38 22790.30,15745.79 22822.97,15662.95">
        <lane id="151974158#0_0" index="0" disallow="tram rail_urban rail rail_electric rail_fast ship cable_car subway" speed="8.33" length="236.56" shape="22735.61,15890.51 22737.46,15885.77 22780.33,15767.83 22788.81,15745.22 22818.83,15669.08"/>
    </edge>
    <edge id="151974158#1" from="29784656" to="cluster_3619264760_3619264761" priority="3" type="highway.residential" shape="22822.97,15662.95 22870.12,15547.39 22876.46,15528.80">
        <lane id="151974158#1_0" index="0" disallow="tram rail_urban rail rail_electric rail_fast ship cable_car subway" speed="8.33" length="146.83" shape="22824.19,15655.74 22868.62,15546.83 22878.05,15519.19"/>
    </edge>
    <edge id="4789051#2" from="cluster_12614653_1882193216_1882193222_29271706_4377814000_4377814001_4377814002_4377814003_4377814004_4377814005_4377814006_4377814007" to="cluster_29784655_5960120416_5960120417_5960120418_5960120419_5960120420_5960120421_5960120422_5960120423" priority="3" type="highway.residential" shape="22540.66,15553.31 22714.31,15620.96">
        <lane id="4789051#2_0" index="0" disallow="tram rail_urban rail rail_electric rail_fast ship cable_car subway" speed="8.33" length="217.88" shape="22511.87,15540.38 22714.89,15619.47"/>
    </edge>
    <edge id="4789062#2" from="cluster_29784655_5960120416_5960120417_5960120418_5960120419_5960120420_5960120421_5960120422_5960120423" to="29784656" priority="3" type="highway.residential" shape="22738.16,15630.27 22822.97,15662.95">
        <lane id="4789062#2_0" index="0" disallow="tram rail_urban rail rail_electric rail_fast ship cable_car subway" speed="8.33" length="83.66" shape="22738.74,15628.78 22816.80,15658.86"/>
    </edge>
    <edge id="8084132#12" from="cluster_29784655_5960120416_5960120417_5960120418_5960120419_5960120420_5960120421_5960120422_5960120423" to="29784665" priority="10" type="highway.tertiary" shape="22731.63,15612.08 22768.23,15518.62">
        <lane id="8084132#12_0" index="0" disallow="tram rail_urban rail rail_electric rail_fast ship cable_car subway" speed="13.89" length="100.37" shape="22730.14,15611.50 22766.74,15518.04"/>
    </edge>
    <edge id="8084132#7" from="29784653" to="cluster_29784655_5960120416_5960120417_5960120418_5960120419_5960120420_5960120421_5960120422_5960120423" priority="10" type="highway.tertiary" shape="22681.58,15739.70 22719.85,15642.15">
        <lane id="8084132#7_0" index="0" disallow="tram rail_urban rail rail_electric rail_fast ship cable_car subway" speed="13.89" length="104.79" shape="22680.09,15739.12 22718.36,15641.57"/>
    </edge>

    <tlLogic id="cluster_29784655_5960120416_5960120417_5960120418_5960120419_5960120420_5960120421_5960120422_5960120423" type="actuated" programID="0" offset="0">
        <phase duration="42" state="rrrGGgrrrGGg" minDur="5" maxDur="50"/>
        <phase duration="3"  state="rrryyyrrryyy"/>
        <phase duration="42" state="GGgrrrGGgrrr" minDur="5" maxDur="50"/>
        <phase duration="3"  state="yyyrrryyyrrr"/>
    </tlLogic>

    <junction id="1425174748" type="dead_end" x="22737.10" y="15891.09" incLanes="-151974158#0_0" intLanes="" shape="22737.10,15891.09 22740.08,15892.25 22737.10,15891.09"/>
    <junction id="29784653" type="dead_end" x="22681.58" y="15739.70" incLanes="-8084132#7_0" intLanes="" shape="22681.58,15739.70 22684.56,15740.87 22681.58,15739.70"/>
    <junction id="29784656" type="right_before_left" x="22822.97" y="15662.95" incLanes="-151974158#1_0 4789062#2_0 151974158#0_0" intLanes=":29784656_0_0 :29784656_1_0 :29784656_2_0 :29784656_3_0 :29784656_4_0 :29784656_5_0" shape="22828.63,15657.55 22822.70,15655.13 22821.44,15657.03 22820.62,15657.54 22819.67,15657.77 22818.59,15657.71 22817.38,15657.37 22815.08,15663.34 22816.99,15664.55 22817.51,15665.35 22817.74,15666.27 22817.69,15667.32 22817.34,15668.50 22823.30,15670.85">
        <request index="0" response="000000" foes="001000" cont="0"/>
        <request index="1" response="110000" foes="111000" cont="0"/>
        <request index="2" response="000000" foes="100000" cont="0"/>
        <request index="3" response="000011" foes="100011" cont="0"/>
        <request index="4" response="000000" foes="000010" cont="0"/>
        <request index="5" response="001100" foes="001110" cont="0"/>
    </junction>
    <junction id="29784665" type="dead_end" x="22768.23" y="15518.62" incLanes="8084132#12_0" intLanes="" shape="22768.23,15518.62 22765.25,15517.45 22768.23,15518.62"/>
    <junction id="cluster_12614653_1882193216_1882193222_29271706_4377814000_4377814001_4377814002_4377814003_4377814004_4377814005_4377814006_4377814007" type="dead_end" x="22511.73" y="15540.74" incLanes="-4789051#2_0" intLanes="" shape="22511.29,15541.87 22510.13,15544.85 22511.29,15541.87"/>
    <junction id="cluster_29784655_5960120416_5960120417_5960120418_5960120419_5960120420_5960120421_5960120422_5960120423" type="traffic_light" x="22726.11" y="15626.01" incLanes="-4789062#2_0 -8084132#12_0 4789051#2_0 8084132#7_0" intLanes=":cluster_29784655_5960120416_5960120417_5960120418_5960120419_5960120420_5960120421_5960120422_5960120423_0_0 :cluster_29784655_5960120416_5960120417_5960120418_5960120419_5960120420_5960120421_5960120422_5960120423_1_0 :cluster_29784655_5960120416_5960120417_5960120418_5960120419_5960120420_5960120421_5960120422_5960120423_12_0 :cluster_29784655_5960120416_5960120417_5960120418_5960120419_5960120420_5960120421_5960120422_5960120423_3_0 :cluster_29784655_5960120416_5960120417_5960120418_5960120419_5960120420_5960120421_5960120422_5960120423_4_0 :cluster_29784655_5960120416_5960120417_5960120418_5960120419_5960120420_5960120421_5960120422_5960120423_13_0 :cluster_29784655_5960120416_5960120417_5960120418_5960120419_5960120420_5960120421_5960120422_5960120423_6_0 :cluster_29784655_5960120416_5960120417_5960120418_5960120419_5960120420_5960120421_5960120422_5960120423_7_0 :cluster_29784655_5960120416_5960120417_5960120418_5960120419_5960120420_5960120421_5960120422_5960120423_14_0 :cluster_29784655_5960120416_5960120417_5960120418_5960120419_5960120420_5960120421_5960120422_5960120423_9_0 :cluster_29784655_5960120416_5960120417_5960120418_5960120419_5960120420_5960120421_5960120422_5960120423_10_0 :cluster_29784655_5960120416_5960120417_5960120418_5960120419_5960120420_5960120421_5960120422_5960120423_15_0" shape="22737.01,15633.26 22739.31,15627.28 22736.72,15625.95 22734.85,15624.21 22733.70,15622.07 22733.28,15619.53 22733.58,15616.59 22734.61,15613.25 22728.65,15610.91 22727.13,15614.05 22725.34,15616.40 22723.28,15617.97 22720.95,15618.76 22718.35,15618.76 22715.47,15617.98 22713.15,15623.94 22715.76,15625.39 22717.57,15627.40 22718.59,15629.96 22718.82,15633.08 22718.24,15636.75 22716.87,15640.98 22722.83,15643.32 22724.69,15639.29 22726.76,15636.21 22729.02,15634.06 22731.48,15632.85 22734.15,15632.58">
        <request index="0"  response="000000010000" foes="000100010000" cont="0"/>
        <request index="1"  response="111000110000" foes="111100110000" cont="0"/>
        <request index="2"  response="110011110000" foes="110011110000" cont="1"/>
        <request index="3"  response="000000000000" foes="100010000000" cont="0"/>
        <request index="4"  response="000100000100" foes="100110000111" cont="0"/>
        <request index="5"  response="011100000100" foes="011110000110" cont="1"/>
        <request index="6"  response="010000000000" foes="010000000100" cont="0"/>
        <request index="7"  response="110000111000" foes="110000111100" cont="0"/>
        <request index="8"  response="110000110011" foes="110000110011" cont="1"/>
        <request index="9"  response="000000000000" foes="000000100010" cont="0"/>
        <request index="10" response="000100000100" foes="000111100110" cont="0"/>
        <request index="11" response="000100011100" foes="000110011110" cont="1"/>
    </junction>
    <junction id="cluster_3619264760_3619264761" type="dead_end" x="22870.84" y="15516.73" incLanes="151974158#1_0" intLanes="" shape="22879.56,15519.70 22876.53,15518.67 22879.56,15519.70"/>

    <junction id=":cluster_29784655_5960120416_5960120417_5960120418_5960120419_5960120420_5960120421_5960120422_5960120423_12_0" type="internal" x="22733.64" y="15629.46" incLanes=":cluster_29784655_5960120416_5960120417_5960120418_5960120419_5960120420_5960120421_5960120422_5960120423_2_0 4789051#2_0" intLanes=":cluster_29784655_5960120416_5960120417_5960120418_5960120419_5960120420_5960120421_5960120422_5960120423_4_0 :cluster_29784655_5960120416_5960120417_5960120418_5960120419_5960120420_5960120421_5960120422_5960120423_5_0 :cluster_29784655_5960120416_5960120417_5960120418_5960120419_5960120420_5960120421_5960120422_5960120423_6_0 :cluster_29784655_5960120416_5960120417_5960120418_5960120419_5960120420_5960120421_5960120422_5960120423_7_0 :cluster_29784655_5960120416_5960120417_5960120418_5960120419_5960120420_5960120421_5960120422_5960120423_10_0 :cluster_29784655_5960120416_5960120417_5960120418_5960120419_5960120420_5960120421_5960120422_5960120423_11_0"/>
    <junction id=":cluster_29784655_5960120416_5960120417_5960120418_5960120419_5960120420_5960120421_5960120422_5960120423_13_0" type="internal" x="22730.44" y="15617.55" incLanes=":cluster_29784655_5960120416_5960120417_5960120418_5960120419_5960120420_5960120421_5960120422_5960120423_5_0 8084132#7_0" intLanes=":cluster_29784655_5960120416_5960120417_5960120418_5960120419_5960120420_5960120421_5960120422_5960120423_1_0 :cluster_29784655_5960120416_5960120417_5960120418_5960120419_5960120420_5960120421_5960120422_5960120423_2_0 :cluster_29784655_5960120416_5960120417_5960120418_5960120419_5960120420_5960120421_5960120422_5960120423_7_0 :cluster_29784655_5960120416_5960120417_5960120418_5960120419_5960120420_5960120421_5960120422_5960120423_8_0 :cluster_29784655_5960120416_5960120417_5960120418_5960120419_5960120420_5960120421_5960120422_5960120423_9_0 :cluster_29784655_5960120416_5960120417_5960120418_5960120419_5960120420_5960120421_5960120422_5960120423_10_0"/>
    <junction id=":cluster_29784655_5960120416_5960120417_5960120418_5960120419_5960120420_5960120421_5960120422_5960120423_14_0" type="internal" x="22718.14" y="15621.51" incLanes=":cluster_29784655_5960120416_5960120417_5960120418_5960120419_5960120420_5960120421_5960120422_5960120423_8_0 -4789062#2_0" intLanes=":cluster_29784655_5960120416_5960120417_5960120418_5960120419_5960120420_5960120421_5960120422_5960120423_0_0 :cluster_29784655_5960120416_5960120417_5960120418_5960120419_5960120420_5960120421_5960120422_5960120423_1_0 :cluster_29784655_5960120416_5960120417_5960120418_5960120419_5960120420_5960120421_5960120422_5960120423_4_0 :cluster_29784655_5960120416_5960120417_5960120418_5960120419_5960120420_5960120421_5960120422_5960120423_5_0 :cluster_29784655_5960120416_5960120417_5960120418_5960120419_5960120420_5960120421_5960120422_5960120423_10_0 :cluster_29784655_5960120416_5960120417_5960120418_5960120419_5960120420_5960120421_5960120422_5960120423_11_0"/>
    <junction id=":cluster_29784655_5960120416_5960120417_5960120418_5960120419_5960120420_5960120421_5960120422_5960120423_15_0" type="internal" x="22721.43" y="15635.66" incLanes=":cluster_29784655_5960120416_5960120417_5960120418_5960120419_5960120420_5960120421_5960120422_5960120423_11_0 -8084132#12_0" intLanes=":cluster_29784655_5960120416_5960120417_5960120418_5960120419_5960120420_5960120421_5960120422_5960120423_1_0 :cluster_29784655_5960120416_5960120417_5960120418_5960120419_5960120420_5960120421_5960120422_5960120423_2_0 :cluster_29784655_5960120416_5960120417_5960120418_5960120419_5960120420_5960120421_5960120422_5960120423_3_0 :cluster_29784655_5960120416_5960120417_5960120418_5960120419_5960120420_5960120421_5960120422_5960120423_4_0 :cluster_29784655_5960120416_5960120417_5960120418_5960120419_5960120420_5960120421_5960120422_5960120423_7_0 :cluster_29784655_5960120416_5960120417_5960120418_5960120419_5960120420_5960120421_5960120422_5960120423_8_0"/>

    <connection from="-151974158#1" to="-151974158#0" fromLane="0" toLane="0" via=":29784656_0_0" dir="s" state="M"/>
    <connection from="-151974158#1" to="-4789062#2" fromLane="0" toLane="0" via=":29784656_1_0" dir="l" state="="/>
    <connection from="-4789062#2" to="-8084132#7" fromLane="0" toLane="0" via=":cluster_29784655_5960120416_5960120417_5960120418_5960120419_5960120420_5960120421_5960120422_5960120423_0_0" tl="cluster_29784655_5960120416_5960120417_5960120418_5960120419_5960120420_5960120421_5960120422_5960120423" linkIndex="0" dir="r" state="o"/>
    <connection from="-4789062#2" to="-4789051#2" fromLane="0" toLane="0" via=":cluster_29784655_5960120416_5960120417_5960120418_5960120419_5960120420_5960120421_5960120422_5960120423_1_0" tl="cluster_29784655_5960120416_5960120417_5960120418_5960120419_5960120420_5960120421_5960120422_5960120423" linkIndex="1" dir="s" state="o"/>
    <connection from="-4789062#2" to="8084132#12" fromLane="0" toLane="0" via=":cluster_29784655_5960120416_5960120417_5960120418_5960120419_5960120420_5960120421_5960120422_5960120423_2_0" tl="cluster_29784655_5960120416_5960120417_5960120418_5960120419_5960120420_5960120421_5960120422_5960120423" linkIndex="2" dir="l" state="o"/>
    <connection from="-8084132#12" to="4789062#2" fromLane="0" toLane="0" via=":cluster_29784655_5960120416_5960120417_5960120418_5960120419_5960120420_5960120421_5960120422_5960120423_3_0" tl="cluster_29784655_5960120416_5960120417_5960120418_5960120419_5960120420_5960120421_5960120422_5960120423" linkIndex="3" dir="r" state="O"/>
    <connection from="-8084132#12" to="-8084132#7" fromLane="0" toLane="0" via=":cluster_29784655_5960120416_5960120417_5960120418_5960120419_5960120420_5960120421_5960120422_5960120423_4_0" tl="cluster_29784655_5960120416_5960120417_5960120418_5960120419_5960120420_5960120421_5960120422_5960120423" linkIndex="4" dir="s" state="O"/>
    <connection from="-8084132#12" to="-4789051#2" fromLane="0" toLane="0" via=":cluster_29784655_5960120416_5960120417_5960120418_5960120419_5960120420_5960120421_5960120422_5960120423_5_0" tl="cluster_29784655_5960120416_5960120417_5960120418_5960120419_5960120420_5960120421_5960120422_5960120423" linkIndex="5" dir="l" state="o"/>
    <connection from="151974158#0" to="-4789062#2" fromLane="0" toLane="0" via=":29784656_4_0" dir="r" state="M"/>
    <connection from="151974158#0" to="151974158#1" fromLane="0" toLane="0" via=":29784656_5_0" dir="s" state="="/>
    <connection from="4789051#2" to="8084132#12" fromLane="0" toLane="0" via=":cluster_29784655_5960120416_5960120417_5960120418_5960120419_5960120420_5960120421_5960120422_5960120423_6_0" tl="cluster_29784655_5960120416_5960120417_5960120418_5960120419_5960120420_5960120421_5960120422_5960120423" linkIndex="6" dir="r" state="o"/>
    <connection from="4789051#2" to="4789062#2" fromLane="0" toLane="0" via=":cluster_29784655_5960120416_5960120417_5960120418_5960120419_5960120420_5960120421_5960120422_5960120423_7_0" tl="cluster_29784655_5960120416_5960120417_5960120418_5960120419_5960120420_5960120421_5960120422_5960120423" linkIndex="7" dir="s" state="o"/>
    <connection from="4789051#2" to="-8084132#7" fromLane="0" toLane="0" via=":cluster_29784655_5960120416_5960120417_5960120418_5960120419_5960120420_5960120421_5960120422_5960120423_8_0" tl="cluster_29784655_5960120416_5960120417_5960120418_5960120419_5960120420_5960120421_5960120422_5960120423" linkIndex="8" dir="l" state="o"/>
    <connection from="4789062#2" to="151974158#1" fromLane="0" toLane="0" via=":29784656_2_0" dir="r" state="M"/>
    <connection from="4789062#2" to="-151974158#0" fromLane="0" toLane="0" via=":29784656_3_0" dir="l" state="="/>