<?xml version="1.0" encoding="UTF-8"?>

<!-- generated on 2026-02-11 22:52:37.483704 by Eclipse SUMO cutRoutes.py v1.26.0
<configuration>
    <routes-output value="H/H.rou.xml"/>
    <orig-net value="berlin-small.net.xml"/>
    <network value="H/H.net.xml"/>
    <routeFiles value="berlin-small.rou.xml"/>
</configuration>
-->

<routes xmlns:xsi="http://www.w3.org/2001/XMLSchema-instance" xsi:noNamespaceSchemaLocation="http://sumo.dlr.de/xsd/routes_file.xsd">
    <vType id="DefaultVehicle" length="5.00" minGap="2.00" maxSpeed="50.00" accel="1.50" decel="4.50" sigma="0.50" tau="1.00"/>
    <vehicle id="72" type="DefaultVehicle" depart="161.00">
        <route edges="4789051#2 -8084132#7"/>
    </vehicle>
    <vehicle id="128" type="DefaultVehicle" depart="392.65" departLane="best" departSpeed="max">
        <route edges="-8084132#12 -8084132#7"/>
    </vehicle>
    <vehicle id="222" type="DefaultVehicle" depart="502.00">
        <route edges="-151974158#1 -4789062#2 -8084132#7"/>
    </vehicle>
    <vehicle id="651" type="DefaultVehicle" depart="2005.61" departLane="best" departSpeed="max">
        <route edges="8084132#7 8084132#12"/>
    </vehicle>
    <vehicle id="813" type="DefaultVehicle" depart="2786.41" departLane="best" departSpeed="max">
        <route edges="8084132#7 8084132#12"/>
    </vehicle>
    <vehicle id="987" type="DefaultVehicle" depart="3996.39" departLane="best" departSpeed="max">
        <route edges="4789051#2 8084132#12"/>
    </vehicle>
    <vehicle id="1225" type="DefaultVehicle" depart="4394.18" departLane="best" departSpeed="max">
        <route edges="8084132#7 8084132#12"/>
    </vehicle>
    <vehicle id="1414" type="DefaultVehicle" depart="5051.00">
        <route edges="-151974158#1 -4789062#2 -4789051#2"/>
    </vehicle>
    <vehicle id="1626" type="DefaultVehicle" depart="5897.88" departLane="best" departSpeed="max">
        <route edges="-8084132#12 -8084132#7"/>
    </vehicle>
    <vehicle id="1646" type="DefaultVehicle" depart="5961.05" departLane="best" departSpeed="max">
        <route edges="-8084132#12 -8084132#7"/>
    </vehicle>
    <vehicle id="1645" type="DefaultVehicle" depart="6097.32" departLane="best" departSpeed="max">
        <route edges="-8084132#12 -4789051#2"/>
    </vehicle>
    <vehicle id="1689" type="DefaultVehicle" depart="6165.40" departLane="best" departSpeed="max">
        <route edges="-8084132#12 -8084132#7"/>
    </vehicle>
    <vehicle id="1797" type="DefaultVehicle" depart="6550.05" departLane="best" departSpeed="max">
        <route edges="-8084132#12 -8084132#7"/>
    </vehicle>
    <vehicle id="1727" type="DefaultVehicle" depart="6678.04" departLane="best" departSpeed="max">
        <route edges="4789051#2"/>
    </vehicle>
    <vehicle id="2178" type="DefaultVehicle" depart="7914.01" departLane="best" departSpeed="max">
        <route edges="-8084132#12 -8084132#7"/>
    </vehicle>
    <vehicle id="2619" type="DefaultVehicle" depart="8583.93" departLane="best" departSpeed="max">
        <route edges="-8084132#12 -8084132#7"/>
    </vehicle>
    <vehicle id="2947" type="DefaultVehicle" depart="9570.16" departLane="best" departSpeed="max">
        <route edges="8084132#7 8084132#12"/>
    </vehicle>
    <vehicle id="3763" type="DefaultVehicle" depart="11071.73" departLane="best" departSpeed="max">
        <route edges="-8084132#12 -8084132#7"/>
    </vehicle>
    <vehicle id="4316" type="DefaultVehicle" depart="11593.71" departLane="best" departSpeed="max">
        <route edges="-151974158#1 -4789062#2 -4789051#2"/>
    </vehicle>
    <vehicle id="4470" type="DefaultVehicle" depart="11800.40" departLane="best" departSpeed="max">
        <route edges="8084132#7 -4789051#2"/>
    </vehicle>
    <vehicle id="4913" type="DefaultVehicle" depart="12384.99" departLane="best" departSpeed="max">
        <route edges="-8084132#12 -8084132#7"/>
    </vehicle>
    <vehicle id="4921" type="DefaultVehicle" depart="12387.87" departLane="best" departSpeed="max">
        <route edges="-151974158#1 -4789062#2 -4789051#2"/>
    </vehicle>
    <vehicle id="5338" type="DefaultVehicle" depart="12942.77" departLane="best" departSpeed="max">
        <route edges="4789051#2 -8084132#7"/>
    </vehicle>
    <vehicle id="5441" type="DefaultVehicle" depart="12991.88" departLane="best" departSpeed="max">
        <route edges="-8084132#12 -8084132#7"/>
    </vehicle>
    <vehicle id="5628" type="DefaultVehicle" depart="13296.22" departLane="best" departSpeed="max">
        <route edges="4789051#2 4789062#2 151974158#1"/>
    </vehicle>
    <vehicle id="6284" type="DefaultVehicle" depart="13799.85" departLane="best" departSpeed="max">
        <route edges="4789051#2 8084132#12"/>
    </vehicle>
    <vehicle id="6918" type="DefaultVehicle" depart="14376.00">
        <route edges="4789051#2 -8084132#7"/>
    </vehicle>
    <vehicle id="8135" type="DefaultVehicle" depart="15302.37" departLane="best" departSpeed="max">
        <route edges="-8084132#12 -8084132#7"/>
    </vehicle>
    <vehicle id="8387" type="DefaultVehicle" depart="15398.00">
        <route edges="4789051#2 8084132#12"/>
    </vehicle>
    <vehicle id="8616" type="DefaultVehicle" depart="15584.95" departLane="best" departSpeed="max">
        <route edges="8084132#7 -4789051#2"/>
    </vehicle>
    <vehicle id="9011" type="DefaultVehicle" depart="15768.15" departLane="best" departSpeed="max">
        <route edges="8084132#7 -4789051#2"/>
    </vehicle>
    <vehicle id="8934" type="DefaultVehicle" depart="15813.57" departLane="best" departSpeed="max">
        <route edges="-8084132#12 -8084132#7"/>
    </vehicle>
    <vehicle id="8911" type="DefaultVehicle" depart="15911.51" departLane="best" departSpeed="max">
        <route edges="8084132#7 8084132#12"/>
    </vehicle>
    <vehicle id="8996" type="DefaultVehicle" depart="15922.93" departLane="best" departSpeed="max">
        <route edges="8084132#7 8084132#12"/>
    </vehicle>
    <vehicle id="9321" type="DefaultVehicle" depart="15934.36" departLane="best" departSpeed="max">
        <route edges="8084132#7 8084132#12"/>
    </vehicle>
    <vehicle id="9432" type="DefaultVehicle" depart="15985.00">
        <route edges="4789051#2 -8084132#7"/>
    </vehicle>
    <vehicle id="9398" type="DefaultVehicle" depart="16261.70" departLane="best" departSpeed="max">
        <route edges="4789051#2 4789062#2 151974158#1"/>
    </vehicle>
    <vehicle id="9920" type="DefaultVehicle" depart="16266.96" departLane="best" departSpeed="max">
        <route edges="-8084132#12 -8084132#7"/>
    </vehicle>
    <vehicle id="10216" type="DefaultVehicle" depart="16376.94" departLane="best" departSpeed="max">
        <route edges="151974158#0 151974158#1"/>
    </vehicle>
    <vehicle id="10205" type="DefaultVehicle" depart="16398.05" departLane="best" departSpeed="max">
        <route edges="8084132#7 8084132#12"/>
    </vehicle>
    <vehicle id="10564" type="DefaultVehicle" depart="16544.00">
        <route edges="-151974158#1 -4789062#2 8084132#12"/>
    </vehicle>
    <vehicle id="10242" type="DefaultVehicle" depart="16583.26" departLane="best" departSpeed="max">
        <route edges="-151974158#1 -4789062#2 -4789051#2"/>
    </vehicle>
    <vehicle id="11074" type="DefaultVehicle" depart="16885.48" departLane="best" departSpeed="max">
        <route edges="-8084132#12 -8084132#7"/>
    </vehicle>
    <vehicle id="11236" type="DefaultVehicle" depart="17276.43" departLane="best" departSpeed="max">
        <route edges="-8084132#12 -8084132#7"/>
    </vehicle>
    <vehicle id="11293" type="DefaultVehicle" depart="17333.35" departLane="best" departSpeed="max">
        <route edges="-8084132#12 -8084132#7"/>
    </vehicle>
    <vehicle id="12003" type="DefaultVehicle" depart="17496.40" departLane="best" departSpeed="max">
        <route edges="8084132#7 8084132#12"/>
    </vehicle>
    <vehicle id="13233" type="DefaultVehicle" depart="17669.01" departLane="best" departSpeed="max">
        <route edges="8084132#7 8084132#12"/>
    </vehicle>
    <vehicle id="13296" type="DefaultVehicle" depart="17685.42" departLane="best" departSpeed="max">
        <route edges="-151974158#1 -4789062#2 -4789051#2"/>
    </vehicle>
    <vehicle id="14280" type="DefaultVehicle" depart="17954.00">
        <route edges="-8084132#12 -8084132#7"/>
    </vehicle>
    <vehicle id="12947" type="DefaultVehicle" depart="17964.16" departLane="best" departSpeed="max">
        <route edges="8084132#7 -4789051#2"/>
    </vehicle>
    <vehicle id="14703" type="DefaultVehicle" depart="18085.11" departLane="best" departSpeed="max">
        <route edges="-151974158#1 -4789062#2 -8084132#7"/>
    </vehicle>
    <vehicle id="14011" type="DefaultVehicle" depart="18160.88" departLane="best" departSpeed="max">
        <route edges="8084132#7 -4789051#2"/>
    </vehicle>
    <vehicle id="14698" type="DefaultVehicle" depart="18260.10" departLane="best" departSpeed="max">
        <route edges="8084132#7 8084132#12"/>
    </vehicle>
    <vehicle id="15328" type="DefaultVehicle" depart="18271.05" departLane="best" departSpeed="max">
        <route edges="8084132#7 -4789051#2"/>
    </vehicle>
    <vehicle id="16155" type="DefaultVehicle" depart="18486.16" departLane="best" departSpeed="max">
        <route edges="-151974158#1 -4789062#2 -8084132#7"/>
    </vehicle>
    <vehicle id="17332" type="DefaultVehicle" depart="18710.09" departLane="best" departSpeed="max">
        <route edges="-8084132#12 -8084132#7"/>
    </vehicle>
    <vehicle id="18047" type="DefaultVehicle" depart="18871.42" departLane="best" departSpeed="max">
        <route edges="-151974158#1 -4789062#2 -8084132#7"/>
    </vehicle>
    <vehicle id="17268" type="DefaultVehicle" depart="18887.63" departLane="best" departSpeed="max">
        <route edges="4789051#2"/>
    </vehicle>
    <vehicle id="16894" type="DefaultVehicle" depart="19004.90" departLane="best" departSpeed="max">
        <route edges="-8084132#12 -8084132#7"/>
    </vehicle>
    <vehicle id="17512" type="DefaultVehicle" depart="19120.23" departLane="best" departSpeed="max">
        <route edges="8084132#7 8084132#12"/>
    </vehicle>
    <vehicle id="19220" type="DefaultVehicle" depart="19164.78" departLane="best" departSpeed="max">
        <route edges="8084132#7 8084132#12"/>
    </vehicle>
    <vehicle id="19984" type="DefaultVehicle" depart="19225.24" departLane="best" departSpeed="max">
        <route edges="-151974158#1 -4789062#2 -8084132#7"/>
    </vehicle>
    <vehicle id="17790" type="DefaultVehicle" depart="19248.68" departLane="best" departSpeed="max">
        <route edges="8084132#7 8084132#12"/>
    </vehicle>
    <vehicle id="20525" type="DefaultVehicle" depart="19267.00">
        <route edges="8084132#12"/>
    </vehicle>
    <vehicle id="17086" type="DefaultVehicle" depart="19288.28" departLane="best" departSpeed="max">
        <route edges="4789051#2"/>
    </vehicle>
    <vehicle id="18352" type="DefaultVehicle" depart="19324.42" departLane="best" departSpeed="max">
        <route edges="8084132#7 -4789051#2"/>
    </vehicle>
    <vehicle id="16806" type="DefaultVehicle" depart="19326.38" departLane="best" departSpeed="max">
        <route edges="-151974158#1"/>
    </vehicle>
    <vehicle id="20780" type="DefaultVehicle" depart="19476.62" departLane="best" departSpeed="max">
        <route edges="-8084132#12 -8084132#7"/>
    </vehicle>
    <vehicle id="21332" type="DefaultVehicle" depart="19510.77" departLane="best" departSpeed="max">
        <route edges="8084132#7 8084132#12"/>
    </vehicle>
    <vehicle id="22157" type="DefaultVehicle" depart="19573.31" departLane="best" departSpeed="max">
        <route edges="8084132#7 8084132#12"/>
    </vehicle>
    <vehicle id="23253" type="DefaultVehicle" depart="19624.00">
        <route edges="8084132#12"/>
    </vehicle>
    <vehicle id="23067" type="DefaultVehicle" depart="19632.84" departLane="best" departSpeed="max">
        <route edges="-151974158#1 -4789062#2 -8084132#7"/>
    </vehicle>
    <vehicle id="22829" type="DefaultVehicle" depart="19646.24" departLane="best" departSpeed="max">
        <route edges="8084132#7 8084132#12"/>
    </vehicle>
    <vehicle id="24116" type="DefaultVehicle" depart="19718.00">
        <route edges="8084132#12"/>
    </vehicle>
    <vehicle id="23749" type="DefaultVehicle" depart="19724.24" departLane="best" departSpeed="max">
        <route edges="-151974158#1 -4789062#2 -4789051#2"/>
    </vehicle>
    <vehicle id="24239" type="DefaultVehicle" depart="19731.00">
        <route edges="4789051#2 8084132#12"/>
    </vehicle>
    <vehicle id="24220" type="DefaultVehicle" depart="19740.98" departLane="best" departSpeed="max">
        <route edges="8084132#7 8084132#12"/>
    </vehicle>
    <vehicle id="24017" type="DefaultVehicle" depart="19747.83" departLane="best" departSpeed="max">
        <route edges="8084132#7 8084132#12"/>
    </vehicle>
    <vehicle id="23484" type="DefaultVehicle" depart="19792.49" departLane="best" departSpeed="max">
        <route edges="8084132#7 8084132#12"/>
    </vehicle>
    <vehicle id="24690" type="DefaultVehicle" depart="19805.19" departLane="best" departSpeed="max">
        <route edges="8084132#7 8084132#12"/>
    </vehicle>
    <vehicle id="23892" type="DefaultVehicle" depart="19868.97" departLane="best" departSpeed="max">
        <route edges="-8084132#12 -8084132#7"/>
    </vehicle>
    <vehicle id="24949" type="DefaultVehicle" depart="19895.32" departLane="best" departSpeed="max">
        <route edges="8084132#7 8084132#12"/>
    </vehicle>
    <vehicle id="24248" type="DefaultVehicle" depart="19952.23" departLane="best" departSpeed="max">
        <route edges="-8084132#12 -8084132#7"/>
    </vehicle>
    <vehicle id="15810" type="DefaultVehicle" depart="19990.29" departLane="best" departSpeed="max">
        <route edges="-8084132#12 -8084132#7"/>
    </vehicle>
    <vehicle id="25604" type="DefaultVehicle" depart="19997.78" departLane="best" departSpeed="max">
        <route edges="8084132#7 8084132#12"/>
    </vehicle>
    <vehicle id="26674" type="DefaultVehicle" depart="20021.05" departLane="best" departSpeed="max">
        <route edges="8084132#7"/>
    </vehicle>
    <vehicle id="27526" type="DefaultVehicle" depart="20070.16" departLane="best" departSpeed="max">
        <route edges="4789051#2 8084132#12"/>
    </vehicle>
    <vehicle id="25451" type="DefaultVehicle" depart="20145.42" departLane="best" departSpeed="max">
        <route edges="-8084132#12 -8084132#7"/>
    </vehicle>
    <vehicle id="20531" type="DefaultVehicle" depart="20163.78" departLane="best" departSpeed="max">
        <route edges="8084132#7 8084132#12"/>
    </vehicle>
    <vehicle id="24746" type="DefaultVehicle" depart="20274.84" departLane="best" departSpeed="max">
        <route edges="8084132#7 4789062#2 151974158#1"/>
    </vehicle>
    <vehicle id="29970" type="DefaultVehicle" depart="20281.00">
        <route edges="-151974158#1 -4789062#2 -8084132#7"/>
    </vehicle>
    <vehicle id="21088" type="DefaultVehicle" depart="20372.89" departLane="best" departSpeed="max">
        <route edges="-8084132#12 -8084132#7"/>
    </vehicle>
    <vehicle id="24623" type="DefaultVehicle" depart="20385.18" departLane="best" departSpeed="max">
        <route edges="8084132#7 8084132#12"/>
    </vehicle>
    <vehicle id="28320" type="DefaultVehicle" depart="20393.59" departLane="best" departSpeed="max">
        <route edges="-8084132#12 -8084132#7"/>
    </vehicle>
    <vehicle id="18004" type="DefaultVehicle" depart="20469.27" departLane="best" departSpeed="max">
        <route edges="4789051#2 -8084132#7"/>
    </vehicle>
    <vehicle id="31477" type="DefaultVehicle" depart="20489.16" departLane="best" departSpeed="max">
        <route edges="-8084132#12 -8084132#7"/>
    </vehicle>
    <vehicle id="32850" type="DefaultVehicle" depart="20510.00">
        <route edges="8084132#7 -4789051#2"/>
    </vehicle>
    <vehicle id="32931" type="DefaultVehicle" depart="20514.00">
        <route edges="4789051#2 8084132#12"/>
    </vehicle>
    <vehicle id="18871" type="DefaultVehicle" depart="20573.04" departLane="best" departSpeed="max">
        <route edges="-8084132#12 -8084132#7"/>
    </vehicle>
    <vehicle id="30172" type="DefaultVehicle" depart="20595.03" departLane="best" departSpeed="max">
        <route edges="4789051#2 4789062#2 -151974158#0"/>
    </vehicle>
    <vehicle id="34653" type="DefaultVehicle" depart="20676.73" departLane="best" departSpeed="max">
        <route edges="-151974158#1 -4789062#2 -8084132#7"/>
    </vehicle>
    <vehicle id="34743" type="DefaultVehicle" depart="20698.82" departLane="best" departSpeed="max">
        <route edges="-8084132#12 -8084132#7"/>
    </vehicle>
    <vehicle id="30401" type="DefaultVehicle" depart="20718.22" departLane="best" departSpeed="max">
        <route edges="8084132#7 -4789051#2"/>
    </vehicle>
    <vehicle id="32152" type="DefaultVehicle" depart="20793.81" departLane="best" departSpeed="max">
        <route edges="8084132#7 8084132#12"/>
    </vehicle>
    <vehicle id="19481" type="DefaultVehicle" depart="20814.00" departLane="best" departSpeed="max">
        <route edges="4789051#2 -8084132#7"/>
    </vehicle>
    <vehicle id="34054" type="DefaultVehicle" depart="20852.29" departLane="best" departSpeed="max">
        <route edges="8084132#7 8084132#12"/>
    </vehicle>
    <vehicle id="31184" type="DefaultVehicle" depart="20860.83" departLane="best" departSpeed="max">
        <route edges="8084132#7 4789062#2 151974158#1"/>
    </vehicle>
    <vehicle id="38238" type="DefaultVehicle" depart="20873.00">
        <route edges="-8084132#7"/>
    </vehicle>
    <vehicle id="36076" type="DefaultVehicle" depart="20885.85" departLane="best" departSpeed="max">
        <route edges="8084132#7 8084132#12"/>
    </vehicle>
    <vehicle id="34024" type="DefaultVehicle" depart="20907.69" departLane="best" departSpeed="max">
        <route edges="8084132#7 8084132#12"/>
    </vehicle>
    <vehicle id="38076" type="DefaultVehicle" depart="20913.93" departLane="best" departSpeed="max">
        <route edges="-8084132#12 -8084132#7"/>
    </vehicle>
    <vehicle id="37217" type="DefaultVehicle" depart="20919.81" departLane="best" departSpeed="max">
        <route edges="8084132#7 8084132#12"/>
    </vehicle>
    <vehicle id="37849" type="DefaultVehicle" depart="20922.25" departLane="best" departSpeed="max">
        <route edges="-8084132#12 -8084132#7"/>
    </vehicle>
    <vehicle id="36641" type="DefaultVehicle" depart="20941.48" departLane="best" departSpeed="max">
        <route edges="8084132#7 8084132#12"/>
    </vehicle>
    <vehicle id="38457" type="DefaultVehicle" depart="20951.80" departLane="best" departSpeed="max">
        <route edges="8084132#7 8084132#12"/>
    </vehicle>
    <vehicle id="34699" type="DefaultVehicle" depart="20963.82" departLane="best" departSpeed="max">
        <route edges="8084132#7 -4789051#2"/>
    </vehicle>
    <vehicle id="32409" type="DefaultVehicle" depart="21002.51" departLane="best" departSpeed="max">
        <route edges="8084132#7 8084132#12"/>
    </vehicle>
    <vehicle id="39317" type="DefaultVehicle" depart="21003.03" departLane="best" departSpeed="max">
        <route edges="-8084132#12 -8084132#7"/>
    </vehicle>
    <vehicle id="38416" type="DefaultVehicle" depart="21046.68" departLane="best" departSpeed="max">
        <route edges="8084132#7 4789062#2 151974158#1"/>
    </vehicle>
    <vehicle id="39807" type="DefaultVehicle" depart="21051.35" departLane="best" departSpeed="max">
        <route edges="8084132#7 8084132#12"/>
    </vehicle>
    <vehicle id="37673" type="DefaultVehicle" depart="21072.89" departLane="best" departSpeed="max">
        <route edges="-8084132#12 -8084132#7"/>
    </vehicle>
    <vehicle id="40166" type="DefaultVehicle" depart="21077.64" departLane="best" departSpeed="max">
        <route edges="-8084132#12 -8084132#7"/>
    </vehicle>
    <vehicle id="36522" type="DefaultVehicle" depart="21096.26" departLane="best" departSpeed="max">
        <route edges="-8084132#12 -8084132#7"/>
    </vehicle>
    <vehicle id="37282" type="DefaultVehicle" depart="21104.51" departLane="best" departSpeed="max">
        <route edges="8084132#7 8084132#12"/>
    </vehicle>
    <vehicle id="29007" type="DefaultVehicle" depart="21136.48" departLane="best" departSpeed="max">
        <route edges="-8084132#12 -8084132#7"/>
    </vehicle>
    <vehicle id="36682" type="DefaultVehicle" depart="21163.58" departLane="best" departSpeed="max">
        <route edges="8084132#7 8084132#12"/>
    </vehicle>
    <vehicle id="33368" type="DefaultVehicle" depart="21183.92" departLane="best" departSpeed="max">
        <route edges="-8084132#12"/>
    </vehicle>
    <vehicle id="41574" type="DefaultVehicle" depart="21192.17" departLane="best" departSpeed="max">
        <route edges="8084132#7 8084132#12"/>
    </vehicle>
    <vehicle id="43382" type="DefaultVehicle" depart="21201.00">
        <route edges="8084132#7 4789062#2 151974158#1"/>
    </vehicle>
    <vehicle id="41368" type="DefaultVehicle" depart="21204.64" departLane="best" departSpeed="max">
        <route edges="8084132#7 8084132#12"/>
    </vehicle>
    <vehicle id="42455" type="DefaultVehicle" depart="21245.80" departLane="best" departSpeed="max">
        <route edges="-8084132#12 -8084132#7"/>
    </vehicle>
    <vehicle id="37568" type="DefaultVehicle" depart="21256.01" departLane="best" departSpeed="max">
        <route edges="8084132#7 -4789051#2"/>
    </vehicle>
    <vehicle id="43716" type="DefaultVehicle" depart="21258.34" departLane="best" departSpeed="max">
        <route edges="-151974158#1 -4789062#2 -8084132#7"/>
    </vehicle>
    <vehicle id="41411" type="DefaultVehicle" depart="21267.23" departLane="best" departSpeed="max">
        <route edges="-8084132#12 -8084132#7"/>
    </vehicle>
    <vehicle id="37234" type="DefaultVehicle" depart="21271.82" departLane="best" departSpeed="max">
        <route edges="-8084132#12 -8084132#7"/>
    </vehicle>
    <vehicle id="43774" type="DefaultVehicle" depart="21278.40" departLane="best" departSpeed="max">
        <route edges="8084132#7 8084132#12"/>
    </vehicle>
    <vehicle id="39116" type="DefaultVehicle" depart="21293.61" departLane="best" departSpeed="max">
        <route edges="8084132#7 8084132#12"/>
    </vehicle>
    <vehicle id="44698" type="DefaultVehicle" depart="21295.99" departLane="best" departSpeed="max">
        <route edges="-151974158#1 -4789062#2 -8084132#7"/>
    </vehicle>
    <vehicle id="41393" type="DefaultVehicle" depart="21307.01" departLane="best" departSpeed="max">
        <route edges="8084132#7 8084132#12"/>
    </vehicle>
    <vehicle id="36505" type="DefaultVehicle" depart="21327.39" departLane="best" departSpeed="max">
        <route edges="-8084132#12 -8084132#7"/>
    </vehicle>
    <vehicle id="44383" type="DefaultVehicle" depart="21351.68" departLane="best" departSpeed="max">
        <route edges="8084132#7 8084132#12"/>
    </vehicle>
    <vehicle id="40302" type="DefaultVehicle" depart="21371.79" departLane="best" departSpeed="max">
        <route edges="4789051#2 4789062#2 -151974158#0"/>
    </vehicle>
    <vehicle id="46082" type="DefaultVehicle" depart="21413.40" departLane="best" departSpeed="max">
        <route edges="8084132#7 8084132#12"/>
    </vehicle>
    <vehicle id="43501" type="DefaultVehicle" depart="21420.91" departLane="best" departSpeed="max">
        <route edges="8084132#7 8084132#12"/>
    </vehicle>
    <vehicle id="45888" type="DefaultVehicle" depart="21427.46" departLane="best" departSpeed="max">
        <route edges="8084132#7 -4789051#2"/>
    </vehicle>
    <vehicle id="43577" type="DefaultVehicle" depart="21430.33" departLane="best" departSpeed="max">
        <route edges="-8084132#12 -8084132#7"/>
    </vehicle>
    <vehicle id="44638" type="DefaultVehicle" depart="21464.55" departLane="best" departSpeed="max">
        <route edges="8084132#7 8084132#12"/>
    </vehicle>
    <vehicle id="46847" type="DefaultVehicle" depart="21474.10" departLane="best" departSpeed="max">
        <route edges="8084132#7 8084132#12"/>
    </vehicle>
    <vehicle id="39253" type="DefaultVehicle" depart="21487.19" departLane="best" departSpeed="max">
        <route edges="8084132#7 8084132#12"/>
    </vehicle>
    <vehicle id="47485" type="DefaultVehicle" depart="21514.24" departLane="best" departSpeed="max">
        <route edges="8084132#7 -4789051#2"/>
    </vehicle>
    <vehicle id="47797" type="DefaultVehicle" depart="21514.40" departLane="best" departSpeed="max">
        <route edges="8084132#7 8084132#12"/>
    </vehicle>
    <vehicle id="44523" type="DefaultVehicle" depart="21520.59" departLane="best" departSpeed="max">
        <route edges="-8084132#12 -8084132#7"/>
    </vehicle>
    <vehicle id="47849" type="DefaultVehicle" depart="21557.91" departLane="best" departSpeed="max">
        <route edges="-8084132#12 -8084132#7"/>
    </vehicle>
    <vehicle id="44729" type="DefaultVehicle" depart="21563.67" departLane="best" departSpeed="max">
        <route edges="-8084132#12 -8084132#7"/>
    </vehicle>
    <vehicle id="49210" type="DefaultVehicle" depart="21565.04" departLane="best" departSpeed="max">
        <route edges="4789051#2 -8084132#7"/>
    </vehicle>
    <vehicle id="43764" type="DefaultVehicle" depart="21589.10" departLane="best" departSpeed="max">
        <route edges="8084132#7 -4789051#2"/>
    </vehicle>
    <vehicle id="41082" type="DefaultVehicle" depart="21664.71" departLane="best" departSpeed="max">
        <route edges="8084132#7 8084132#12"/>
    </vehicle>
    <vehicle id="40542" type="DefaultVehicle" depart="21688.50" departLane="best" departSpeed="max">
        <route edges="-151974158#1 -151974158#0"/>
    </vehicle>
    <vehicle id="47598" type="DefaultVehicle" depart="21710.87" departLane="best" departSpeed="max">
        <route edges="-8084132#12 -8084132#7"/>
    </vehicle>
    <vehicle id="50950" type="DefaultVehicle" depart="21738.91" departLane="best" departSpeed="max">
        <route edges="-8084132#12 -8084132#7"/>
    </vehicle>
    <vehicle id="51120" type="DefaultVehicle" depart="21773.17" departLane="best" departSpeed="max">
        <route edges="-8084132#12 -8084132#7"/>
    </vehicle>
    <vehicle id="51676" type="DefaultVehicle" depart="21780.29" departLane="best" departSpeed="max">
        <route edges="-8084132#12 -8084132#7"/>
    </vehicle>
    <vehicle id="53343" type="DefaultVehicle" depart="21806.90" departLane="best" departSpeed="max">
        <route edges="8084132#7 8084132#12"/>
    </vehicle>
    <vehicle id="52844" type="DefaultVehicle" depart="21824.86" departLane="best" departSpeed="max">
        <route edges="4789051#2 4789062#2 151974158#1"/>
    </vehicle>
    <vehicle id="53183" type="DefaultVehicle" depart="21833.68" departLane="best" departSpeed="max">
        <route edges="8084132#7 8084132#12"/>
    </vehicle>
    <vehicle id="53340" type="DefaultVehicle" depart="21847.35" departLane="best" departSpeed="max">
        <route edges="8084132#7 8084132#12"/>
    </vehicle>
    <vehicle id="44748" type="DefaultVehicle" depart="21854.62" departLane="best" departSpeed="max">
        <route edges="-8084132#12 -8084132#7"/>
    </vehicle>
    <vehicle id="50223" type="DefaultVehicle" depart="21865.73" departLane="best" departSpeed="max">
        <route edges="4789051#2"/>
    </vehicle>
    <vehicle id="50484" type="DefaultVehicle" depart="21868.45" departLane="best" departSpeed="max">
        <route edges="-8084132#12 -8084132#7"/>
    </vehicle>
    <vehicle id="54739" type="DefaultVehicle" depart="21903.11" departLane="best" departSpeed="max">
        <route edges="4789051#2 8084132#12"/>
    </vehicle>
    <vehicle id="55154" type="DefaultVehicle" depart="21921.40" departLane="best" departSpeed="max">
        <route edges="8084132#7 8084132#12"/>
    </vehicle>
    <vehicle id="53409" type="DefaultVehicle" depart="21922.37" departLane="best" departSpeed="max">
        <route edges="-8084132#12 -8084132#7"/>
    </vehicle>
    <vehicle id="55143" type="DefaultVehicle" depart="21934.24" departLane="best" departSpeed="max">
        <route edges="8084132#7 8084132#12"/>
    </vehicle>
    <vehicle id="45385" type="DefaultVehicle" depart="21947.14" departLane="best" departSpeed="max">
        <route edges="8084132#7 8084132#12"/>
    </vehicle>
    <vehicle id="55652" type="DefaultVehicle" depart="21949.40" departLane="best" departSpeed="max">
        <route edges="8084132#7 8084132#12"/>
    </vehicle>
    <vehicle id="54268" type="DefaultVehicle" depart="21954.75" departLane="best" departSpeed="max">
        <route edges="8084132#7 8084132#12"/>
    </vehicle>
    <vehicle id="55329" type="DefaultVehicle" depart="21978.16" departLane="best" departSpeed="max">
        <route edges="8084132#7 8084132#12"/>
    </vehicle>
    <vehicle id="51386" type="DefaultVehicle" depart="21980.26" departLane="best" departSpeed="max">
        <route edges="8084132#7 8084132#12"/>
    </vehicle>
    <vehicle id="49541" type="DefaultVehicle" depart="21983.65" departLane="best" departSpeed="max">
        <route edges="8084132#7 8084132#12"/>
    </vehicle>
    <vehicle id="55133" type="DefaultVehicle" depart="21994.28" departLane="best" departSpeed="max">
        <route edges="4789051#2 -8084132#7"/>
    </vehicle>
    <vehicle id="55414" type="DefaultVehicle" depart="21997.75" departLane="best" departSpeed="max">
        <route edges="8084132#7 8084132#12"/>
    </vehicle>
    <vehicle id="54263" type="DefaultVehicle" depart="22005.25" departLane="best" departSpeed="max">
        <route edges="8084132#7 8084132#12"/>
    </vehicle>
    <vehicle id="56207" type="DefaultVehicle" depart="22005.86" departLane="best" departSpeed="max">
        <route edges="4789051#2 -8084132#7"/>
    </vehicle>
    <vehicle id="55789" type="DefaultVehicle" depart="22008.17" departLane="best" departSpeed="max">