<?xml version="1.0" encoding="UTF-8"?>

<!-- generated on 2026-02-11T22:53:47.769353+01:00 by Eclipse SUMO netconvert 1.25.0
<netconvertConfiguration xmlns:xsi="http://www.w3.org/2001/XMLSchema-instance" xsi:noNamespaceSchemaLocation="http://sumo.dlr.de/xsd/netconvertConfiguration.xsd">

    <input>
        <sumo-net-file value="berlin-small.net.xml"/>
    </input>

    <output>
        <output-file value="c.net.xml"/>
    </output>

    <processing>
        <geometry.min-radius.fix.railways value="false"/>
        <geometry.avoid-overlap value="false"/>
        <geometry.max-grade.fix value="false"/>
        <offset.disable-normalization value="true"/>
        <lefthand value="0"/>
    </processing>

    <edge_removal>
        <keep-edges.in-boundary value="22349.14,15796.76,22491.23,15719.91"/>
    </edge_removal>

    <junctions>
        <no-turnarounds value="true"/>
        <junctions.corner-detail value="5"/>
        <junctions.limit-turn-speed value="5.50"/>
        <rectangular-lane-cut value="0"/>
    </junctions>

    <pedestrian>
        <walkingareas value="0"/>
    </pedestrian>

</netconvertConfiguration>
-->

<net version="1.20" junctionCornerDetail="5" limitTurnSpeed="5.50" avoidOverlap="0" xmlns:xsi="http://www.w3.org/2001/XMLSchema-instance" xsi:noNamespaceSchemaLocation="http://sumo.dlr.de/xsd/net_file.xsd">

    <location netOffset="-372355.98,-5804722.35" convBoundary="22328.80,15589.08,22541.69,15995.55" origBoundary="13.122591,52.383149,13.502221,52.618113" projParameter="+proj=utm +zone=33 +ellps=WGS84 +datum=WGS84 +units=m +no_defs"/>

    <type id="highway.primary" priority="12" numLanes="2" speed="27.78" disallow="tram rail_urban rail rail_electric rail_fast ship container cable_car subway aircraft wheelchair scooter drone" oneway="0"/>
    <type id="highway.residential" priority="3" numLanes="1" speed="13.89" disallow="tram rail_urban rail rail_electric rail_fast ship container cable_car subway aircraft wheelchair scooter drone" oneway="0"/>

    <edge id=":cluster_28150269_29271707_4377814009_4377814010_4377814011_4377814012_4377814013_4377814014_4377814015_4377814016_4377814017_0" function="internal">
        <lane id=":cluster_28150269_29271707_4377814009_4377814010_4377814011_4377814012_4377814013_4377814014_4377814015_4377814016_4377814017_0_0" index="0" disallow="tram rail_urban rail rail_electric rail_fast ship cable_car subway" speed="9.10" length="18.69" shape="22450.57,15779.88 22444.35,15777.96 22439.49,15777.63 22435.99,15778.92 22433.87,15781.80"/>
    </edge>
    <edge id=":cluster_28150269_29271707_4377814009_4377814010_4377814011_4377814012_4377814013_4377814014_4377814015_4377814016_4377814017_1" function="internal">
        <lane id=":cluster_28150269_29271707_4377814009_4377814010_4377814011_4377814012_4377814013_4377814014_4377814015_4377814016_4377814017_1_0" index="0" disallow="tram rail_urban rail rail_electric rail_fast ship cable_car subway" speed="8.33" length="60.92" shape="22450.57,15779.88 22393.92,15757.48"/>
    </edge>
    <edge id=":cluster_28150269_29271707_4377814009_4377814010_4377814011_4377814012_4377814013_4377814014_4377814015_4377814016_4377814017_2" function="internal">
        <lane id=":cluster_28150269_29271707_4377814009_4377814010_4377814011_4377814012_4377814013_4377814014_4377814015_4377814016_4377814017_2_0" index="0" disallow="tram rail_urban rail rail_electric rail_fast ship cable_car subway" speed="11.11" length="16.98" shape="22450.57,15779.88 22435.05,15772.99"/>
    </edge>
    <edge id=":cluster_28150269_29271707_4377814009_4377814010_4377814011_4377814012_4377814013_4377814014_4377814015_4377814016_4377814017_14" function="internal">
        <lane id=":cluster_28150269_29271707_4377814009_4377814010_4377814011_4377814012_4377814013_4377814014_4377814015_4377814016_4377814017_14_0" index="0" disallow="tram rail_urban rail rail_electric rail_fast ship cable_car subway" speed="11.11" length="29.35" shape="22435.05,15772.99 22433.87,15772.46 22422.57,15765.52 22416.67,15759.04 22416.17,15753.03"/>
    </edge>
    <edge id=":cluster_28150269_29271707_4377814009_4377814010_4377814011_4377814012_4377814013_4377814014_4377814015_4377814016_4377814017_3" function="internal">
        <lane id=":cluster_28150269_29271707_4377814009_4377814010_4377814011_4377814012_4377814013_4377814014_4377814015_4377814016_4377814017_3_0" index="0" disallow="tram rail_urban rail rail_electric rail_fast ship cable_car subway" speed="9.38" length="19.86" shape="22441.30,15762.64 22440.66,15766.82 22442.19,15770.60 22445.88,15773.96 22451.75,15776.90"/>
    </edge>
    <edge id=":cluster_28150269_29271707_4377814009_4377814010_4377814011_4377814012_4377814013_4377814014_4377814015_4377814016_4377814017_4" function="internal">
        <lane id=":cluster_28150269_29271707_4377814009_4377814010_4377814011_4377814012_4377814013_4377814014_4377814015_4377814016_4377814017_4_0" index="0" disallow="tram rail_urban rail rail_electric rail_fast ship cable_car subway" speed="13.89" length="20.54" shape="22441.30,15762.64 22433.87,15781.80"/>
        <lane id=":cluster_28150269_29271707_4377814009_4377814010_4377814011_4377814012_4377814013_4377814014_4377814015_4377814016_4377814017_4_1" index="1" disallow="tram rail_urban rail rail_electric rail_fast ship cable_car subway" speed="13.89" length="20.54" shape="22438.31,15761.50 22430.89,15780.64"/>
    </edge>
    <edge id=":cluster_28150269_29271707_4377814009_4377814010_4377814011_4377814012_4377814013_4377814014_4377814015_4377814016_4377814017_6" function="internal">
        <lane id=":cluster_28150269_29271707_4377814009_4377814010_4377814011_4377814012_4377814013_4377814014_4377814015_4377814016_4377814017_6_0" index="0" disallow="tram rail_urban rail rail_electric rail_fast ship cable_car subway" speed="11.11" length="25.45" shape="22438.31,15761.50 22433.79,15765.69 22424.89,15766.41 22414.74,15764.32"/>
    </edge>
    <edge id=":cluster_28150269_29271707_4377814009_4377814010_4377814011_4377814012_4377814013_4377814014_4377814015_4377814016_4377814017_15" function="internal">
        <lane id=":cluster_28150269_29271707_4377814009_4377814010_4377814011_4377814012_4377814013_4377814014_4377814015_4377814016_4377814017_15_0" index="0" disallow="tram rail_urban rail rail_electric rail_fast ship cable_car subway" speed="11.11" length="21.95" shape="22414.74,15764.32 22411.60,15763.68 22393.92,15757.48"/>
    </edge>
    <edge id=":cluster_28150269_29271707_4377814009_4377814010_4377814011_4377814012_4377814013_4377814014_4377814015_4377814016_4377814017_7" function="internal">
        <lane id=":cluster_28150269_29271707_4377814009_4377814010_4377814011_4377814012_4377814013_4377814014_4377814015_4377814016_4377814017_7_0" index="0" disallow="tram rail_urban rail rail_electric rail_fast ship cable_car subway" speed="9.46" length="20.45" shape="22395.10,15754.50 22401.79,15756.56 22407.03,15756.81 22410.83,15755.25 22413.19,15751.89"/>
    </edge>
    <edge id=":cluster_28150269_29271707_4377814009_4377814010_4377814011_4377814012_4377814013_4377814014_4377814015_4377814016_4377814017_8" function="internal">
        <lane id=":cluster_28150269_29271707_4377814009_4377814010_4377814011_4377814012_4377814013_4377814014_4377814015_4377814016_4377814017_8_0" index="0" disallow="tram rail_urban rail rail_electric rail_fast ship cable_car subway" speed="8.33" length="60.91" shape="22395.10,15754.50 22451.75,15776.90"/>
    </edge>
    <edge id=":cluster_28150269_29271707_4377814009_4377814010_4377814011_4377814012_4377814013_4377814014_4377814015_4377814016_4377814017_9" function="internal">
        <lane id=":cluster_28150269_29271707_4377814009_4377814010_4377814011_4377814012_4377814013_4377814014_4377814015_4377814016_4377814017_9_0" index="0" disallow="tram rail_urban rail rail_electric rail_fast ship cable_car subway" speed="11.11" length="17.57" shape="22395.10,15754.50 22411.17,15761.61"/>
    </edge>
    <edge id=":cluster_28150269_29271707_4377814009_4377814010_4377814011_4377814012_4377814013_4377814014_4377814015_4377814016_4377814017_16" function="internal">
        <lane id=":cluster_28150269_29271707_4377814009_4377814010_4377814011_4377814012_4377814013_4377814014_4377814015_4377814016_4377814017_16_0" index="0" disallow="tram rail_urban rail rail_electric rail_fast ship cable_car subway" speed="11.11" length="29.04" shape="22411.17,15761.61 22412.26,15762.09 22423.95,15768.98 22430.16,15775.16 22430.89,15780.64"/>
    </edge>
    <edge id=":cluster_28150269_29271707_4377814009_4377814010_4377814011_4377814012_4377814013_4377814014_4377814015_4377814016_4377814017_10" function="internal">
        <lane id=":cluster_28150269_29271707_4377814009_4377814010_4377814011_4377814012_4377814013_4377814014_4377814015_4377814016_4377814017_10_0" index="0" disallow="tram rail_urban rail rail_electric rail_fast ship cable_car subway" speed="9.39" length="20.05" shape="22406.07,15770.94 22406.44,15767.32 22404.54,15763.87 22400.37,15760.59 22393.92,15757.48"/>
    </edge>
    <edge id=":cluster_28150269_29271707_4377814009_4377814010_4377814011_4377814012_4377814013_4377814014_4377814015_4377814016_4377814017_11" function="internal">
        <lane id=":cluster_28150269_29271707_4377814009_4377814010_4377814011_4377814012_4377814013_4377814014_4377814015_4377814016_4377814017_11_0" index="0" disallow="tram rail_urban rail rail_electric rail_fast ship cable_car subway" speed="13.89" length="20.35" shape="22406.07,15770.94 22413.19,15751.89"/>
        <lane id=":cluster_28150269_29271707_4377814009_4377814010_4377814011_4377814012_4377814013_4377814014_4377814015_4377814016_4377814017_11_1" index="1" disallow="tram rail_urban rail rail_electric rail_fast ship cable_car subway" speed="13.89" length="20.35" shape="22409.05,15772.10 22416.17,15753.03"/>
    </edge>
    <edge id=":cluster_28150269_29271707_4377814009_4377814010_4377814011_4377814012_4377814013_4377814014_4377814015_4377814016_4377814017_13" function="internal">
        <lane id=":cluster_28150269_29271707_4377814009_4377814010_4377814011_4377814012_4377814013_4377814014_4377814015_4377814016_4377814017_13_0" index="0" disallow="tram rail_urban rail rail_electric rail_fast ship cable_car subway" speed="11.11" length="24.62" shape="22409.05,15772.10 22413.31,15768.51 22421.84,15768.12 22432.11,15770.36"/>
    </edge>
    <edge id=":cluster_28150269_29271707_4377814009_4377814010_4377814011_4377814012_4377814013_4377814014_4377814015_4377814016_4377814017_17" function="internal">
        <lane id=":cluster_28150269_29271707_4377814009_4377814010_4377814011_4377814012_4377814013_4377814014_4377814015_4377814016_4377814017_17_0" index="0" disallow="tram rail_urban rail rail_electric rail_fast ship cable_car subway" speed="11.11" length="20.71" shape="22432.11,15770.36 22434.66,15770.91 22451.75,15776.90"/>
    </edge>

    <edge id="-114684413#1" from="29784671" to="cluster_28150269_29271707_4377814009_4377814010_4377814011_4377814012_4377814013_4377814014_4377814015_4377814016_4377814017" priority="3" type="highway.residential" shape="22541.69,15814.07 22469.98,15785.81 22451.16,15778.39">
        <lane id="-114684413#1_0" index="0" disallow="tram rail_urban rail rail_electric rail_fast ship cable_car subway" speed="8.33" length="97.31" shape="22541.10,15815.56 22469.39,15787.30 22450.57,15779.88"/>
    </edge>
    <edge id="-44851670#2" from="cluster_28150269_29271707_4377814009_4377814010_4377814011_4377814012_4377814013_4377814014_4377814015_4377814016_4377814017" to="29271711" priority="3" type="highway.residential" shape="22394.51,15755.99 22378.30,15749.52 22328.80,15729.74">
        <lane id="-44851670#2_0" index="0" disallow="tram rail_urban rail rail_electric rail_fast ship cable_car subway" speed="8.33" length="70.76" shape="22393.92,15757.48 22377.71,15751.01 22328.21,15731.23"/>
    </edge>
    <edge id="114684413#1" from="cluster_28150269_29271707_4377814009_4377814010_4377814011_4377814012_4377814013_4377814014_4377814015_4377814016_4377814017" to="29784671" priority="3" type="highway.residential" shape="22451.16,15778.39 22469.98,15785.81 22541.69,15814.07">
        <lane id="114684413#1_0" index="0" disallow="tram rail_urban rail rail_electric rail_fast ship cable_car subway" speed="8.33" length="97.31" shape="22451.75,15776.90 22470.57,15784.32 22542.28,15812.58"/>
    </edge>
    <edge id="338616239" from="29784666" to="cluster_28150269_29271707_4377814009_4377814010_4377814011_4377814012_4377814013_4377814014_4377814015_4377814016_4377814017" priority="12" type="highway.primary" spreadType="center" shape="22479.49,15660.85 22456.93,15718.39 22453.81,15726.33 22441.36,15758.09">
        <lane id="338616239_0" index="0" disallow="tram rail_urban rail rail_electric rail_fast ship cable_car subway" speed="13.89" length="108.72" shape="22480.98,15661.43 22458.42,15718.97 22455.30,15726.91 22441.30,15762.64"/>
        <lane id="338616239_1" index="1" disallow="tram rail_urban rail rail_electric rail_fast ship cable_car subway" speed="13.89" length="108.72" shape="22478.00,15660.27 22455.44,15717.81 22452.32,15725.75 22438.31,15761.50"/>
        <param key="ref" value="B 96a"/>
    </edge>
    <edge id="440078644#1" from="cluster_28150269_29271707_4377814009_4377814010_4377814011_4377814012_4377814013_4377814014_4377814015_4377814016_4377814017" to="4377814008" priority="12" type="highway.primary" spreadType="center" shape="22414.68,15752.46 22477.16,15589.08">
        <lane id="440078644#1_0" index="0" disallow="tram rail_urban rail rail_electric rail_fast ship cable_car subway" speed="13.89" length="174.92" shape="22413.19,15751.89 22475.67,15588.51"/>
        <lane id="440078644#1_1" index="1" disallow="tram rail_urban rail rail_electric rail_fast ship cable_car subway" speed="13.89" length="174.92" shape="22416.17,15753.03 22478.65,15589.65"/>
        <param key="ref" value="B 96a"/>
    </edge>
    <edge id="44851670#2" from="29271711" to="cluster_28150269_29271707_4377814009_4377814010_4377814011_4377814012_4377814013_4377814014_4377814015_4377814016_4377814017" priority="3" type="highway.residential" shape="22328.80,15729.74 22378.30,15749.52 22394.51,15755.99">
        <lane id="44851670#2_0" index="0" disallow="tram rail_urban rail rail_electric rail_fast ship cable_car subway" speed="8.33" length="70.76" shape="22329.39,15728.25 22378.89,15748.03 22395.10,15754.50"/>
    </edge>
    <edge id="4615780#1" from="cluster_12614600_1860618754_1860618762_1860618778_1860618795_1860618797_1860618805_1860618824_1860618825_29270276_29270294_29270295_3649758678_3651880147_3657149480_3657636381" to="cluster_28150269_29271707_4377814009_4377814010_4377814011_4377814012_4377814013_4377814014_4377814015_4377814016_4377814017" priority="12" type="highway.primary" spreadType="center" shape="22331.55,15969.19 22335.51,15958.40 22352.70,15913.77 22356.03,15904.93 22360.68,15892.60 22364.10,15884.14 22391.90,15809.84 22405.81,15775.80">
        <lane id="4615780#1_0" index="0" disallow="tram rail_urban rail rail_electric rail_fast ship cable_car subway" speed="13.89" length="235.86" shape="22321.76,15991.23 22334.01,15957.84 22351.21,15913.20 22354.53,15904.37 22359.19,15892.02 22362.61,15883.56 22390.41,15809.26 22406.07,15770.94"/>
        <lane id="4615780#1_1" index="1" disallow="tram rail_urban rail rail_electric rail_fast ship cable_car subway" speed="13.89" length="235.86" shape="22324.76,15992.33 22337.01,15958.96 22354.19,15914.34 22357.53,15905.49 22362.17,15893.18 22365.59,15884.72 22393.39,15810.42 22409.05,15772.10"/>
        <param key="ref" value="B 96a"/>
    </edge>
    <edge id="4685636#1" from="cluster_28150269_29271707_4377814009_4377814010_4377814011_4377814012_4377814013_4377814014_4377814015_4377814016_4377814017" to="313467315" priority="12" type="highway.primary" spreadType="center" shape="22432.38,15781.22 22392.04,15884.43">
        <lane id="4685636#1_0" index="0" disallow="tram rail_urban rail rail_electric rail_fast ship cable_car subway" speed="13.89" length="110.81" shape="22433.87,15781.80 22393.53,15885.01"/>
        <lane id="4685636#1_1" index="1" disallow="tram rail_urban rail rail_electric rail_fast ship cable_car subway" speed="13.89" length="110.81" shape="22430.89,15780.64 22390.55,15883.85"/>
        <param key="ref" value="B 96a"/>
    </edge>

    <tlLogic id="cluster_28150269_29271707_4377814009_4377814010_4377814011_4377814012_4377814013_4377814014_4377814015_4377814016_4377814017" type="actuated" programID="0" offset="0">
        <phase duration="42" state="rrrGGGgrrrGGGg" minDur="5" maxDur="50"/>
        <phase duration="3"  state="rrryyyyrrryyyy"/>
        <phase duration="42" state="GGgrrrrGGgrrrr" minDur="5" maxDur="50"/>
        <phase duration="3"  state="yyyrrrryyyrrrr"/>
    </tlLogic>

    <junction id="29271711" type="dead_end" x="22328.80" y="15729.74" incLanes="-44851670#2_0" intLanes="" shape="22328.80,15729.74 22327.61,15732.71 22328.80,15729.74"/>
    <junction id="29784666" type="dead_end" x="22479.49" y="15660.85" incLanes="" intLanes="" shape="22476.51,15659.68 22482.47,15662.02"/>
    <junction id="29784671" type="dead_end" x="22541.69" y="15814.07" incLanes="114684413#1_0" intLanes="" shape="22541.69,15814.07 22542.86,15811.09 22541.69,15814.07"/>
    <junction id="313467315" type="dead_end" x="22392.04" y="15884.43" incLanes="4685636#1_0 4685636#1_1" intLanes="" shape="22395.02,15885.59 22389.06,15883.27"/>
    <junction id="4377814008" type="dead_end" x="22477.16" y="15589.08" incLanes="440078644#1_0 440078644#1_1" intLanes="" shape="22474.17,15587.94 22480.15,15590.22"/>
    <junction id="cluster_12614600_1860618754_1860618762_1860618778_1860618795_1860618797_1860618805_1860618824_1860618825_29270276_29270294_29270295_3649758678_3651880147_3657149480_3657636381" type="dead_end" x="22333.53" y="15995.55" incLanes="" intLanes="" shape="22326.26,15992.88 22320.26,15990.68"/>
    <junction id="cluster_28150269_29271707_4377814009_4377814010_4377814011_4377814012_4377814013_4377814014_4377814015_4377814016_4377814017" type="traffic_light" x="22421.14" y="15766.13" incLanes="-114684413#1_0 338616239_0 338616239_1 44851670#2_0 4615780#1_0 4615780#1_1" intLanes=":cluster_28150269_29271707_4377814009_4377814010_4377814011_4377814012_4377814013_4377814014_4377814015_4377814016_4377814017_0_0 :cluster_28150269_29271707_4377814009_4377814010_4377814011_4377814012_4377814013_4377814014_4377814015_4377814016_4377814017_1_0 :cluster_28150269_29271707_4377814009_4377814010_4377814011_4377814012_4377814013_4377814014_4377814015_4377814016_4377814017_14_0 :cluster_28150269_29271707_4377814009_4377814010_4377814011_4377814012_4377814013_4377814014_4377814015_4377814016_4377814017_3_0 :cluster_28150269_29271707_4377814009_4377814010_4377814011_4377814012_4377814013_4377814014_4377814015_4377814016_4377814017_4_0 :cluster_28150269_29271707_4377814009_4377814010_4377814011_4377814012_4377814013_4377814014_4377814015_4377814016_4377814017_4_1 :cluster_28150269_29271707_4377814009_4377814010_4377814011_4377814012_4377814013_4377814014_4377814015_4377814016_4377814017_15_0 :cluster_28150269_29271707_4377814009_4377814010_4377814011_4377814012_4377814013_4377814014_4377814015_4377814016_4377814017_7_0 :cluster_28150269_29271707_4377814009_4377814010_4377814011_4377814012_4377814013_4377814014_4377814015_4377814016_4377814017_8_0 :cluster_28150269_29271707_4377814009_4377814010_4377814011_4377814012_4377814013_4377814014_4377814015_4377814016_4377814017_16_0 :cluster_28150269_29271707_4377814009_4377814010_4377814011_4377814012_4377814013_4377814014_4377814015_4377814016_4377814017_10_0 :cluster_28150269_29271707_4377814009_4377814010_4377814011_4377814012_4377814013_4377814014_4377814015_4377814016_4377814017_11_0 :cluster_28150269_29271707_4377814009_4377814010_4377814011_4377814012_4377814013_4377814014_4377814015_4377814016_4377814017_11_1 :cluster_28150269_29271707_4377814009_4377814010_4377814011_4377814012_4377814013_4377814014_4377814015_4377814016_4377814017_17_0" shape="22449.99,15781.37 22452.33,15775.41 22448.62,15773.72 22445.76,15771.88 22443.74,15769.92 22442.58,15767.81 22442.26,15765.58 22442.79,15763.21 22411.69,15751.32 22410.50,15753.31 22408.72,15754.62 22406.35,15755.25 22403.39,15755.19 22399.84,15754.45 22395.70,15753.02 22393.32,15758.96 22397.44,15760.80 22400.65,15762.65 22402.98,15764.54 22404.41,15766.45 22404.94,15768.39 22404.58,15770.35 22435.36,15782.38 22438.01,15779.66 22440.17,15779.19 22442.88,15779.32 22446.16,15780.05">
        <request index="0"  response="00000000110000" foes="00000000110000" cont="0"/>
        <request index="1"  response="11110001110000" foes="11111001110000" cont="0"/>
        <request index="2"  response="11101101110000" foes="11101101110000" cont="1"/>
        <request index="3"  response="00000000000000" foes="10000100000000" cont="0"/>
        <request index="4"  response="00000000000100" foes="10001100000111" cont="0"/>
        <request index="5"  response="00001000000100" foes="10001100000111" cont="0"/>
        <request index="6"  response="11111000000100" foes="11111100000110" cont="1"/>
        <request index="7"  response="01100000000000" foes="01100000000000" cont="0"/>
        <request index="8"  response="11100001111000" foes="11100001111100" cont="0"/>
        <request index="9"  response="11100001110010" foes="11100001110110" cont="1"/>
        <request index="10" response="00000000000000" foes="00000001000010" cont="0"/>
        <request index="11" response="00001000000000" foes="00001111000110" cont="0"/>
        <request index="12" response="00001000000100" foes="00001111000110" cont="0"/>
        <request index="13" response="00001000111100" foes="00001101111110" cont="1"/>
    </junction>

    <junction id=":cluster_28150269_29271707_4377814009_4377814010_4377814011_4377814012_4377814013_4377814014_4377814015_4377814016_4377814017_14_0" type="internal" x="22435.05" y="15772.99" incLanes=":cluster_28150269_29271707_4377814009_4377814010_4377814011_4377814012_4377814013_4377814014_4377814015_4377814016_4377814017_2_0 44851670#2_0" intLanes=":cluster_28150269_29271707_4377814009_4377814010_4377814011_4377814012_4377814013_4377814014_4377814015_4377814016_4377814017_4_0 :cluster_28150269_29271707_4377814009_4377814010_4377814011_4377814012_4377814013_4377814014_4377814015_4377814016_4377814017_4_1 :cluster_28150269_29271707_4377814009_4377814010_4377814011_4377814012_4377814013_4377814014_4377814015_4377814016_4377814017_6_0 :cluster_28150269_29271707_4377814009_4377814010_4377814011_4377814012_4377814013_4377814014_4377814015_4377814016_4377814017_7_0 :cluster_28150269_29271707_4377814009_4377814010_4377814011_4377814012_4377814013_4377814014_4377814015_4377814016_4377814017_8_0 :cluster_28150269_29271707_4377814009_4377814010_4377814011_4377814012_4377814013_4377814014_4377814015_4377814016_4377814017_11_0 :cluster_28150269_29271707_4377814009_4377814010_4377814011_4377814012_4377814013_4377814014_4377814015_4377814016_4377814017_11_1 :cluster_28150269_29271707_4377814009_4377814010_4377814011_4377814012_4377814013_4377814014_4377814015_4377814016_4377814017_13_0"/>
    <junction id=":cluster_28150269_29271707_4377814009_4377814010_4377814011_4377814012_4377814013_4377814014_4377814015_4377814016_4377814017_15_0" type="internal" x="22414.74" y="15764.32" incLanes=":cluster_28150269_29271707_4377814009_4377814010_4377814011_4377814012_4377814013_4377814014_4377814015_4377814016_4377814017_6_0 4615780#1_0 4615780#1_1" intLanes=":cluster_28150269_29271707_4377814009_4377814010_4377814011_4377814012_4377814013_4377814014_4377814015_4377814016_4377814017_1_0 :cluster_28150269_29271707_4377814009_4377814010_4377814011_4377814012_4377814013_4377814014_4377814015_4377814016_4377814017_2_0 :cluster_28150269_29271707_4377814009_4377814010_4377814011_4377814012_4377814013_4377814014_4377814015_4377814016_4377814017_8_0 :cluster_28150269_29271707_4377814009_4377814010_4377814011_4377814012_4377814013_4377814014_4377814015_4377814016_4377814017_9_0 :cluster_28150269_29271707_4377814009_4377814010_4377814011_4377814012_4377814013_4377814014_4377814015_4377814016_4377814017_10_0 :cluster_28150269_29271707_4377814009_4377814010_4377814011_4377814012_4377814013_4377814014_4377814015_4377814016_4377814017_11_0 :cluster_28150269_29271707_4377814009_4377814010_4377814011_4377814012_4377814013_4377814014_4377814015_4377814016_4377814017_11_1"/>
    <junction id=":cluster_28150269_29271707_4377814009_4377814010_4377814011_4377814012_4377814013_4377814014_4377814015_4377814016_4377814017_16_0" type="internal" x="22411.17" y="15761.61" incLanes=":cluster_28150269_29271707_4377814009_4377814010_4377814011_4377814012_4377814013_4377814014_4377814015_4377814016_4377814017_9_0 -114684413#1_0" intLanes=":cluster_28150269_29271707_4377814009_4377814010_4377814011_4377814012_4377814013_4377814014_4377814015_4377814016_4377814017_0_0 :cluster_28150269_29271707_4377814009_4377814010_4377814011_4377814012_4377814013_4377814014_4377814015_4377814016_4377814017_1_0 :cluster_28150269_29271707_4377814009_4377814010_4377814011_4377814012_4377814013_4377814014_4377814015_4377814016_4377814017_4_0 :cluster_28150269_29271707_4377814009_4377814010_4377814011_4377814012_4377814013_4377814014_4377814015_4377814016_4377814017_4_1 :cluster_28150269_29271707_4377814009_4377814010_4377814011_4377814012_4377814013_4377814014_4377814015_4377814016_4377814017_6_0 :cluster_28150269_29271707_4377814009_4377814010_4377814011_4377814012_4377814013_4377814014_4377814015_4377814016_4377814017_11_0 :cluster_28150269_29271707_4377814009_4377814010_4377814011_4377814012_4377814013_4377814014_4377814015_4377814016_4377814017_11_1 :cluster_28150269_29271707_4377814009_4377814010_4377814011_4377814012_4377814013_4377814014_4377814015_4377814016_4377814017_13_0"/>
    <junction id=":cluster_28150269_29271707_4377814009_4377814010_4377814011_4377814012_4377814013_4377814014_4377814015_4377814016_4377814017_17_0" type="internal" x="22432.11" y="15770.36" incLanes=":cluster_28150269_29271707_4377814009_4377814010_4377814011_4377814012_4377814013_4377814014_4377814015_4377814016_4377814017_13_0 338616239_0 338616239_1" intLanes=":cluster_28150269_29271707_4377814009_4377814010_4377814011_4377814012_4377814013_4377814014_4377814015_4377814016_4377814017_1_0 :cluster_28150269_29271707_4377814009_4377814010_4377814011_4377814012_4377814013_4377814014_4377814015_4377814016_4377814017_2_0 :cluster_28150269_29271707_4377814009_4377814010_4377814011_4377814012_4377814013_4377814014_4377814015_4377814016_4377814017_3_0 :cluster_28150269_29271707_4377814009_4377814010_4377814011_4377814012_4377814013_4377814014_4377814015_4377814016_4377814017_4_0 :cluster_28150269_29271707_4377814009_4377814010_4377814011_4377814012_4377814013_4377814014_4377814015_4377814016_4377814017_4_1 :cluster_28150269_29271707_4377814009_4377814010_4377814011_4377814012_4377814013_4377814014_4377814015_4377814016_4377814017_8_0 :cluster_28150269_29271707_4377814009_4377814010_4377814011_4377814012_4377814013_4377814014_4377814015_4377814016_4377814017_9_0"/>

    <connection from="-114684413#1" to="4685636#1" fromLane="0" toLane="0" via=":cluster_28150269_29271707_4377814009_4377814010_4377814011_4377814012_4377814013_4377814014_4377814015_4377814016_4377814017_0_0" tl="cluster_28150269_29271707_4377814009_4377814010_4377814011_4377814012_4377814013_4377814014_4377814015_4377814016_4377814017" linkIndex="0" dir="r" state="o"/>
    <connection from="-114684413#1" to="-44851670#2" fromLane="0" toLane="0" via=":cluster_28150269_29271707_4377814009_4377814010_4377814011_4377814012_4377814013_4377814014_4377814015_4377814016_4377814017_1_0" tl="cluster_28150269_29271707_4377814009_4377814010_4377814011_4377814012_4377814013_4377814014_4377814015_4377814016_4377814017" linkIndex="1" dir="s" state="o"/>
    <connection from="-114684413#1" to="440078644#1" fromLane="0" toLane="1" via=":cluster_28150269_29271707_4377814009_4377814010_4377814011_4377814012_4377814013_4377814014_4377814015_4377814016_4377814017_2_0" tl="cluster_28150269_29271707_4377814009_4377814010_4377814011_4377814012_4377814013_4377814014_4377814015_4377814016_4377814017" linkIndex="2" dir="l" state="o"/>
    <connection from="338616239" to="114684413#1" fromLane="0" toLane="0" via=":cluster_28150269_29271707_4377814009_4377814010_4377814011_4377814012_4377814013_4377814014_4377814015_4377814016_4377814017_3_0" tl="cluster_28150269_29271707_4377814009_4377814010_4377814011_4377814012_4377814013_4377814014_4377814015_4377814016_4377814017" linkIndex="3" dir="r" state="O"/>
    <connection from="338616239" to="4685636#1" fromLane="0" toLane="0" via=":cluster_28150269_29271707_4377814009_4377814010_4377814011_4377814012_4377814013_4377814014_4377814015_4377814016_4377814017_4_0" tl="cluster_28150269_29271707_4377814009_4377814010_4377814011_4377814012_4377814013_4377814014_4377814015_4377814016_4377814017" linkIndex="4" dir="s" state="O"/>
    <connection from="338616239" to="4685636#1" fromLane="1" toLane="1" via=":cluster_28150269_29271707_4377814009_4377814010_4377814011_4377814012_4377814013_4377814014_4377814015_4377814016_4377814017_4_1" tl="cluster_28150269_29271707_4377814009_4377814010_4377814011_4377814012_4377814013_4377814014_4377814015_4377814016_4377814017" linkIndex="5" dir="s" state="O"/>
    <connection from="338616239" to="-44851670#2" fromLane="1" toLane="0" via=":cluster_28150269_29271707_4377814009_4377814010_4377814011_4377814012_4377814013_4377814014_4377814015_4377814016_4377814017_6_0" tl="cluster_28150269_29271707_4377814009_4377814010_4377814011_4377814012_4377814013_4377814014_4377814015_4377814016_4377814017" linkIndex="6" dir="l" state="o"/>