<?xml version="1.0" encoding="UTF-8"?>

<!-- generated on 2026-02-11 22:53:53.510882 by Eclipse SUMO cutRoutes.py UNKNOWN
<configuration>
    <routes-output value="c.rou.xml"/>
    <orig-net value="berlin-small.net.xml"/>
    <network value="c.net.xml"/>
    <routeFiles value="berlin-small.rou.xml"/>
</configuration>
-->

<routes xmlns:xsi="http://www.w3.org/2001/XMLSchema-instance" xsi:noNamespaceSchemaLocation="http://sumo.dlr.de/xsd/routes_file.xsd">
    <vType id="DefaultVehicle" length="5.00" minGap="2.00" maxSpeed="50.00" accel="1.50" decel="4.50" sigma="0.50" tau="1.00"/>
    <vehicle id="72" type="DefaultVehicle" depart="207.42" departLane="best" departSpeed="max">
        <route edges="-114684413#1 4685636#1"/>
    </vehicle>
    <vehicle id="97" type="DefaultVehicle" depart="446.24" departLane="best" departSpeed="max">
        <route edges="338616239 4685636#1"/>
    </vehicle>
    <vehicle id="222" type="DefaultVehicle" depart="552.45" departLane="best" departSpeed="max">
        <route edges="-114684413#1 4685636#1"/>
    </vehicle>
    <vehicle id="361" type="DefaultVehicle" depart="1140.86" departLane="best" departSpeed="max">
        <route edges="338616239 4685636#1"/>
    </vehicle>
    <vehicle id="576" type="DefaultVehicle" depart="1602.52" departLane="best" departSpeed="max">
        <route edges="4615780#1 440078644#1"/>
    </vehicle>
    <vehicle id="592" type="DefaultVehicle" depart="1636.52" departLane="best" departSpeed="max">
        <route edges="4615780#1 440078644#1"/>
    </vehicle>
    <vehicle id="744" type="DefaultVehicle" depart="2298.32" departLane="best" departSpeed="max">
        <route edges="4615780#1 440078644#1"/>
    </vehicle>
    <vehicle id="987" type="DefaultVehicle" depart="3965.77" departLane="best" departSpeed="max">
        <route edges="4615780#1 440078644#1"/>
    </vehicle>
    <vehicle id="1299" type="DefaultVehicle" depart="4656.23" departLane="best" departSpeed="max">
        <route edges="4615780#1 440078644#1"/>
    </vehicle>
    <vehicle id="1322" type="DefaultVehicle" depart="4768.60" departLane="best" departSpeed="max">
        <route edges="4615780#1 440078644#1"/>
    </vehicle>
    <vehicle id="1502" type="DefaultVehicle" depart="5719.38" departLane="best" departSpeed="max">
        <route edges="4615780#1"/>
    </vehicle>
    <vehicle id="1538" type="DefaultVehicle" depart="6000.09" departLane="best" departSpeed="max">
        <route edges="338616239 4685636#1"/>
    </vehicle>
    <vehicle id="1641" type="DefaultVehicle" depart="6266.08" departLane="best" departSpeed="max">
        <route edges="4615780#1 114684413#1"/>
    </vehicle>
    <vehicle id="1746" type="DefaultVehicle" depart="6571.29" departLane="best" departSpeed="max">
        <route edges="338616239 -44851670#2"/>
    </vehicle>
    <vehicle id="2389" type="DefaultVehicle" depart="8232.74" departLane="best" departSpeed="max">
        <route edges="4615780#1 440078644#1"/>
    </vehicle>
    <vehicle id="2619" type="DefaultVehicle" depart="8614.69" departLane="best" departSpeed="max">
        <route edges="-114684413#1 4685636#1"/>
    </vehicle>
    <vehicle id="2519" type="DefaultVehicle" depart="8714.12" departLane="best" departSpeed="max">
        <route edges="338616239 4685636#1"/>
    </vehicle>
    <vehicle id="2772" type="DefaultVehicle" depart="9169.33" departLane="best" departSpeed="max">
        <route edges="-114684413#1 440078644#1"/>
    </vehicle>
    <vehicle id="2953" type="DefaultVehicle" depart="9840.49" departLane="best" departSpeed="max">
        <route edges="338616239 4685636#1"/>
    </vehicle>
    <vehicle id="3293" type="DefaultVehicle" depart="10312.74" departLane="best" departSpeed="max">
        <route edges="4615780#1 440078644#1"/>
    </vehicle>
    <vehicle id="3466" type="DefaultVehicle" depart="10607.35" departLane="best" departSpeed="max">
        <route edges="338616239 4685636#1"/>
    </vehicle>
    <vehicle id="3414" type="DefaultVehicle" depart="10619.13" departLane="best" departSpeed="max">
        <route edges="338616239 4685636#1"/>
    </vehicle>
    <vehicle id="3593" type="DefaultVehicle" depart="10873.91" departLane="best" departSpeed="max">
        <route edges="338616239 4685636#1"/>
    </vehicle>
    <vehicle id="3733" type="DefaultVehicle" depart="11094.66" departLane="best" departSpeed="max">
        <route edges="338616239 4685636#1"/>
    </vehicle>
    <vehicle id="3943" type="DefaultVehicle" depart="11380.00" departLane="best" departSpeed="max">
        <route edges="338616239 4685636#1"/>
    </vehicle>
    <vehicle id="3952" type="DefaultVehicle" depart="11400.00" departLane="best" departSpeed="max">
        <route edges="338616239 4685636#1"/>
    </vehicle>
    <vehicle id="3966" type="DefaultVehicle" depart="11462.71" departLane="best" departSpeed="max">
        <route edges="338616239 4685636#1"/>
    </vehicle>
    <vehicle id="4316" type="DefaultVehicle" depart="11650.18" departLane="best" departSpeed="max">
        <route edges="338616239 4685636#1"/>
    </vehicle>
    <vehicle id="4150" type="DefaultVehicle" depart="11660.35" departLane="best" departSpeed="max">
        <route edges="338616239 4685636#1"/>
    </vehicle>
    <vehicle id="4375" type="DefaultVehicle" depart="11701.92" departLane="best" departSpeed="max">
        <route edges="338616239 4685636#1"/>
    </vehicle>
    <vehicle id="4921" type="DefaultVehicle" depart="12444.34" departLane="best" departSpeed="max">
        <route edges="338616239 4685636#1"/>
    </vehicle>
    <vehicle id="5812" type="DefaultVehicle" depart="13532.22" departLane="best" departSpeed="max">
        <route edges="338616239 4685636#1"/>
    </vehicle>
    <vehicle id="5860" type="DefaultVehicle" depart="13607.23" departLane="best" departSpeed="max">
        <route edges="338616239 4685636#1"/>
    </vehicle>
    <vehicle id="6124" type="DefaultVehicle" depart="13742.67" departLane="best" departSpeed="max">
        <route edges="338616239 4685636#1"/>
    </vehicle>
    <vehicle id="6342" type="DefaultVehicle" depart="13980.53" departLane="best" departSpeed="max">
        <route edges="338616239 4685636#1"/>
    </vehicle>
    <vehicle id="6962" type="DefaultVehicle" depart="14467.59" departLane="best" departSpeed="max">
        <route edges="44851670#2 4685636#1"/>
    </vehicle>
    <vehicle id="7071" type="DefaultVehicle" depart="14567.53" departLane="best" departSpeed="max">
        <route edges="44851670#2 4685636#1"/>
    </vehicle>
    <vehicle id="7608" type="DefaultVehicle" depart="14921.24" departLane="best" departSpeed="max">
        <route edges="44851670#2 114684413#1"/>
    </vehicle>
    <vehicle id="7776" type="DefaultVehicle" depart="15037.21" departLane="best" departSpeed="max">
        <route edges="338616239 114684413#1"/>
    </vehicle>
    <vehicle id="7813" type="DefaultVehicle" depart="15043.24" departLane="best" departSpeed="max">
        <route edges="44851670#2 4685636#1"/>
    </vehicle>
    <vehicle id="7722" type="DefaultVehicle" depart="15086.87" departLane="best" departSpeed="max">
        <route edges="4615780#1 440078644#1"/>
    </vehicle>
    <vehicle id="8145" type="DefaultVehicle" depart="15415.55" departLane="best" departSpeed="max">
        <route edges="338616239 4685636#1"/>
    </vehicle>
    <vehicle id="7569" type="DefaultVehicle" depart="15704.66" departLane="best" departSpeed="max">
        <route edges="4615780#1 -44851670#2"/>
    </vehicle>
    <vehicle id="8844" type="DefaultVehicle" depart="15790.43" departLane="best" departSpeed="max">
        <route edges="338616239 4685636#1"/>
    </vehicle>
    <vehicle id="9339" type="DefaultVehicle" depart="15932.00">
        <route edges="4685636#1"/>
    </vehicle>
    <vehicle id="9002" type="DefaultVehicle" depart="15953.75" departLane="best" departSpeed="max">
        <route edges="338616239 4685636#1"/>
    </vehicle>
    <vehicle id="9357" type="DefaultVehicle" depart="15956.86" departLane="best" departSpeed="max">
        <route edges="338616239 4685636#1"/>
    </vehicle>
    <vehicle id="9344" type="DefaultVehicle" depart="15982.96" departLane="best" departSpeed="max">
        <route edges="338616239 4685636#1"/>
    </vehicle>
    <vehicle id="9403" type="DefaultVehicle" depart="16043.47" departLane="best" departSpeed="max">
        <route edges="-114684413#1 4685636#1"/>
    </vehicle>
    <vehicle id="9669" type="DefaultVehicle" depart="16115.93" departLane="best" departSpeed="max">
        <route edges="4615780#1 440078644#1"/>
    </vehicle>
    <vehicle id="9522" type="DefaultVehicle" depart="16253.80" departLane="best" departSpeed="max">
        <route edges="338616239 4685636#1"/>
    </vehicle>
    <vehicle id="9561" type="DefaultVehicle" depart="16319.70" departLane="best" departSpeed="max">
        <route edges="4615780#1 440078644#1"/>
    </vehicle>
    <vehicle id="9927" type="DefaultVehicle" depart="16327.52" departLane="best" departSpeed="max">
        <route edges="338616239 4685636#1"/>
    </vehicle>
    <vehicle id="9494" type="DefaultVehicle" depart="16459.25" departLane="best" departSpeed="max">
        <route edges="338616239 4685636#1"/>
    </vehicle>
    <vehicle id="10340" type="DefaultVehicle" depart="16497.45" departLane="best" departSpeed="max">
        <route edges="4615780#1 440078644#1"/>
    </vehicle>
    <vehicle id="10198" type="DefaultVehicle" depart="16501.62" departLane="best" departSpeed="max">
        <route edges="338616239 4685636#1"/>
    </vehicle>
    <vehicle id="9770" type="DefaultVehicle" depart="16610.11" departLane="best" departSpeed="max">
        <route edges="338616239 4685636#1"/>
    </vehicle>
    <vehicle id="10813" type="DefaultVehicle" depart="16692.86" departLane="best" departSpeed="max">
        <route edges="338616239 4685636#1"/>
    </vehicle>
    <vehicle id="11139" type="DefaultVehicle" depart="16859.24" departLane="best" departSpeed="max">
        <route edges="44851670#2 440078644#1"/>
    </vehicle>
    <vehicle id="11301" type="DefaultVehicle" depart="16938.23" departLane="best" departSpeed="max">
        <route edges="4615780#1 440078644#1"/>
    </vehicle>
    <vehicle id="11199" type="DefaultVehicle" depart="17292.25" departLane="best" departSpeed="max">
        <route edges="338616239 4685636#1"/>
    </vehicle>
    <vehicle id="13296" type="DefaultVehicle" depart="17741.89" departLane="best" departSpeed="max">
        <route edges="338616239 4685636#1"/>
    </vehicle>
    <vehicle id="13529" type="DefaultVehicle" depart="17894.98" departLane="best" departSpeed="max">
        <route edges="338616239 114684413#1"/>
    </vehicle>
    <vehicle id="13404" type="DefaultVehicle" depart="17998.35" departLane="best" departSpeed="max">
        <route edges="4615780#1 440078644#1"/>
    </vehicle>
    <vehicle id="14698" type="DefaultVehicle" depart="18217.14" departLane="best" departSpeed="max">
        <route edges="4615780#1 114684413#1"/>
    </vehicle>
    <vehicle id="15522" type="DefaultVehicle" depart="18448.57" departLane="best" departSpeed="max">
        <route edges="338616239 4685636#1"/>
    </vehicle>
    <vehicle id="16155" type="DefaultVehicle" depart="18536.61" departLane="best" departSpeed="max">
        <route edges="-114684413#1 4685636#1"/>
    </vehicle>
    <vehicle id="13675" type="DefaultVehicle" depart="18617.28" departLane="best" departSpeed="max">
        <route edges="4615780#1 440078644#1"/>
    </vehicle>
    <vehicle id="15852" type="DefaultVehicle" depart="18619.59" departLane="best" departSpeed="max">
        <route edges="4615780#1 440078644#1"/>
    </vehicle>
    <vehicle id="13573" type="DefaultVehicle" depart="18635.67" departLane="best" departSpeed="max">
        <route edges="4615780#1 440078644#1"/>
    </vehicle>
    <vehicle id="16713" type="DefaultVehicle" depart="18688.44" departLane="best" departSpeed="max">
        <route edges="4615780#1 -44851670#2"/>
    </vehicle>
    <vehicle id="16034" type="DefaultVehicle" depart="18689.24" departLane="best" departSpeed="max">
        <route edges="4615780#1 440078644#1"/>
    </vehicle>
    <vehicle id="16252" type="DefaultVehicle" depart="18693.36" departLane="best" departSpeed="max">
        <route edges="338616239 4685636#1"/>
    </vehicle>
    <vehicle id="13646" type="DefaultVehicle" depart="18708.00" departLane="best" departSpeed="max">
        <route edges="4615780#1 440078644#1"/>
    </vehicle>
    <vehicle id="17065" type="DefaultVehicle" depart="18793.94" departLane="best" departSpeed="max">
        <route edges="4615780#1 440078644#1"/>
    </vehicle>
    <vehicle id="17268" type="DefaultVehicle" depart="18857.01" departLane="best" departSpeed="max">
        <route edges="4615780#1 440078644#1"/>
    </vehicle>
    <vehicle id="14026" type="DefaultVehicle" depart="18877.27" departLane="best" departSpeed="max">
        <route edges="4615780#1 440078644#1"/>
    </vehicle>
    <vehicle id="14101" type="DefaultVehicle" depart="18943.02" departLane="best" departSpeed="max">
        <route edges="4615780#1 440078644#1"/>
    </vehicle>
    <vehicle id="17698" type="DefaultVehicle" depart="19038.34" departLane="best" departSpeed="max">
        <route edges="338616239 4685636#1"/>
    </vehicle>
    <vehicle id="17764" type="DefaultVehicle" depart="19071.25" departLane="best" departSpeed="max">
        <route edges="338616239 4685636#1"/>
    </vehicle>
    <vehicle id="14264" type="DefaultVehicle" depart="19148.74" departLane="best" departSpeed="max">
        <route edges="4615780#1 440078644#1"/>
    </vehicle>
    <vehicle id="15417" type="DefaultVehicle" depart="19151.91" departLane="best" departSpeed="max">
        <route edges="4615780#1 440078644#1"/>
    </vehicle>
    <vehicle id="18494" type="DefaultVehicle" depart="19163.35" departLane="best" departSpeed="max">
        <route edges="4615780#1 440078644#1"/>
    </vehicle>
    <vehicle id="18861" type="DefaultVehicle" depart="19191.34" departLane="best" departSpeed="max">
        <route edges="4615780#1 -44851670#2"/>
    </vehicle>
    <vehicle id="19364" type="DefaultVehicle" depart="19200.82" departLane="best" departSpeed="max">
        <route edges="4615780#1 -44851670#2"/>
    </vehicle>
    <vehicle id="14714" type="DefaultVehicle" depart="19214.39" departLane="best" departSpeed="max">
        <route edges="338616239 4685636#1"/>
    </vehicle>
    <vehicle id="19415" type="DefaultVehicle" depart="19231.40" departLane="best" departSpeed="max">
        <route edges="4615780#1 440078644#1"/>
    </vehicle>
    <vehicle id="17086" type="DefaultVehicle" depart="19262.09" departLane="best" departSpeed="max">
        <route edges="-114684413#1 440078644#1"/>
    </vehicle>
    <vehicle id="19666" type="DefaultVehicle" depart="19262.64" departLane="best" departSpeed="max">
        <route edges="4615780#1 440078644#1"/>
    </vehicle>
    <vehicle id="19758" type="DefaultVehicle" depart="19339.18" departLane="best" departSpeed="max">
        <route edges="4615780#1 440078644#1"/>
    </vehicle>
    <vehicle id="18633" type="DefaultVehicle" depart="19342.19" departLane="best" departSpeed="max">
        <route edges="4615780#1 440078644#1"/>
    </vehicle>
    <vehicle id="15503" type="DefaultVehicle" depart="19363.33" departLane="best" departSpeed="max">
        <route edges="338616239 4685636#1"/>
    </vehicle>
    <vehicle id="20687" type="DefaultVehicle" depart="19412.82" departLane="best" departSpeed="max">
        <route edges="4615780#1 -44851670#2"/>
    </vehicle>
    <vehicle id="18765" type="DefaultVehicle" depart="19421.38" departLane="best" departSpeed="max">
        <route edges="338616239 4685636#1"/>
    </vehicle>
    <vehicle id="20812" type="DefaultVehicle" depart="19455.28" departLane="best" departSpeed="max">
        <route edges="4615780#1 440078644#1"/>
    </vehicle>
    <vehicle id="20717" type="DefaultVehicle" depart="19495.85" departLane="best" departSpeed="max">
        <route edges="4615780#1 440078644#1"/>
    </vehicle>
    <vehicle id="21424" type="DefaultVehicle" depart="19501.73" departLane="best" departSpeed="max">
        <route edges="4615780#1 -44851670#2"/>
    </vehicle>
    <vehicle id="20814" type="DefaultVehicle" depart="19503.76" departLane="best" departSpeed="max">
        <route edges="338616239 4685636#1"/>
    </vehicle>
    <vehicle id="22034" type="DefaultVehicle" depart="19504.24" departLane="best" departSpeed="max">
        <route edges="44851670#2 440078644#1"/>
    </vehicle>
    <vehicle id="21228" type="DefaultVehicle" depart="19513.58" departLane="best" departSpeed="max">
        <route edges="4615780#1 440078644#1"/>
    </vehicle>
    <vehicle id="19550" type="DefaultVehicle" depart="19514.09" departLane="best" departSpeed="max">
        <route edges="338616239 4685636#1"/>
    </vehicle>
    <vehicle id="22157" type="DefaultVehicle" depart="19530.35" departLane="best" departSpeed="max">
        <route edges="4615780#1 114684413#1"/>
    </vehicle>
    <vehicle id="21000" type="DefaultVehicle" depart="19535.40" departLane="best" departSpeed="max">
        <route edges="4615780#1 440078644#1"/>
    </vehicle>
    <vehicle id="20810" type="DefaultVehicle" depart="19536.65" departLane="best" departSpeed="max">
        <route edges="338616239 4685636#1"/>
    </vehicle>
    <vehicle id="21525" type="DefaultVehicle" depart="19546.91" departLane="best" departSpeed="max">
        <route edges="4615780#1 440078644#1"/>
    </vehicle>
    <vehicle id="21903" type="DefaultVehicle" depart="19559.60" departLane="best" departSpeed="max">
        <route edges="4615780#1 440078644#1"/>
    </vehicle>
    <vehicle id="22230" type="DefaultVehicle" depart="19566.75" departLane="best" departSpeed="max">
        <route edges="4615780#1 440078644#1"/>
    </vehicle>
    <vehicle id="20214" type="DefaultVehicle" depart="19616.45" departLane="best" departSpeed="max">
        <route edges="338616239 4685636#1"/>
    </vehicle>
    <vehicle id="21846" type="DefaultVehicle" depart="19620.27" departLane="best" departSpeed="max">
        <route edges="4615780#1 440078644#1"/>
    </vehicle>
    <vehicle id="21615" type="DefaultVehicle" depart="19621.14" departLane="best" departSpeed="max">
        <route edges="4615780#1 440078644#1"/>
    </vehicle>
    <vehicle id="22020" type="DefaultVehicle" depart="19621.28" departLane="best" departSpeed="max">
        <route edges="4615780#1 440078644#1"/>
    </vehicle>
    <vehicle id="19408" type="DefaultVehicle" depart="19641.38" departLane="best" departSpeed="max">
        <route edges="338616239 4685636#1"/>
    </vehicle>
    <vehicle id="22097" type="DefaultVehicle" depart="19642.82" departLane="best" departSpeed="max">
        <route edges="4615780#1 440078644#1"/>
    </vehicle>
    <vehicle id="19619" type="DefaultVehicle" depart="19645.20" departLane="best" departSpeed="max">
        <route edges="338616239 4685636#1"/>
    </vehicle>
    <vehicle id="16326" type="DefaultVehicle" depart="19652.91" departLane="best" departSpeed="max">
        <route edges="338616239 4685636#1"/>
    </vehicle>
    <vehicle id="22542" type="DefaultVehicle" depart="19664.17" departLane="best" departSpeed="max">
        <route edges="338616239 4685636#1"/>
    </vehicle>
    <vehicle id="23038" type="DefaultVehicle" depart="19684.27" departLane="best" departSpeed="max">
        <route edges="4615780#1 440078644#1"/>
    </vehicle>
    <vehicle id="23177" type="DefaultVehicle" depart="19702.12" departLane="best" departSpeed="max">
        <route edges="4615780#1 440078644#1"/>
    </vehicle>
    <vehicle id="16853" type="DefaultVehicle" depart="19707.54" departLane="best" departSpeed="max">
        <route edges="4615780#1 440078644#1"/>
    </vehicle>
    <vehicle id="22847" type="DefaultVehicle" depart="19721.28" departLane="best" departSpeed="max">
        <route edges="4615780#1 440078644#1"/>
    </vehicle>
    <vehicle id="18922" type="DefaultVehicle" depart="19725.46" departLane="best" departSpeed="max">
        <route edges="4615780#1 440078644#1"/>
    </vehicle>
    <vehicle id="22202" type="DefaultVehicle" depart="19748.94" departLane="best" departSpeed="max">
        <route edges="4615780#1 440078644#1"/>
    </vehicle>
    <vehicle id="20421" type="DefaultVehicle" depart="19756.35" departLane="best" departSpeed="max">
        <route edges="338616239 4685636#1"/>
    </vehicle>
    <vehicle id="20116" type="DefaultVehicle" depart="19773.48" departLane="best" departSpeed="max">
        <route edges="338616239 4685636#1"/>
    </vehicle>
    <vehicle id="23749" type="DefaultVehicle" depart="19780.71" departLane="best" departSpeed="max">
        <route edges="338616239 4685636#1"/>
    </vehicle>
    <vehicle id="21316" type="DefaultVehicle" depart="19786.92" departLane="best" departSpeed="max">
        <route edges="4615780#1 440078644#1"/>
    </vehicle>
    <vehicle id="23571" type="DefaultVehicle" depart="19800.97" departLane="best" departSpeed="max">
        <route edges="4615780#1 440078644#1"/>
    </vehicle>
    <vehicle id="24640" type="DefaultVehicle" depart="19804.24" departLane="best" departSpeed="max">
        <route edges="44851670#2 440078644#1"/>
    </vehicle>
    <vehicle id="22963" type="DefaultVehicle" depart="19811.62" departLane="best" departSpeed="max">
        <route edges="338616239 4685636#1"/>
    </vehicle>
    <vehicle id="23380" type="DefaultVehicle" depart="19819.93" departLane="best" departSpeed="max">
        <route edges="4615780#1 440078644#1"/>
    </vehicle>
    <vehicle id="24031" type="DefaultVehicle" depart="19852.72" departLane="best" departSpeed="max">
        <route edges="4615780#1 440078644#1"/>
    </vehicle>
    <vehicle id="21633" type="DefaultVehicle" depart="19865.75" departLane="best" departSpeed="max">
        <route edges="338616239 4685636#1"/>
    </vehicle>
    <vehicle id="24076" type="DefaultVehicle" depart="19872.27" departLane="best" departSpeed="max">
        <route edges="4615780#1 440078644#1"/>
    </vehicle>
    <vehicle id="17623" type="DefaultVehicle" depart="19904.26" departLane="best" departSpeed="max">
        <route edges="338616239 4685636#1"/>
    </vehicle>
    <vehicle id="25129" type="DefaultVehicle" depart="19904.53" departLane="best" departSpeed="max">
        <route edges="44851670#2 440078644#1"/>
    </vehicle>
    <vehicle id="20884" type="DefaultVehicle" depart="19945.48" departLane="best" departSpeed="max">
        <route edges="338616239 4685636#1"/>
    </vehicle>
    <vehicle id="24210" type="DefaultVehicle" depart="19959.07" departLane="best" departSpeed="max">
        <route edges="-114684413#1 4685636#1"/>
    </vehicle>
    <vehicle id="26002" type="DefaultVehicle" depart="19991.84" departLane="best" departSpeed="max">
        <route edges="-114684413#1 4685636#1"/>
    </vehicle>
    <vehicle id="22116" type="DefaultVehicle" depart="20003.15" departLane="best" departSpeed="max">
        <route edges="338616239 4685636#1"/>
    </vehicle>
    <vehicle id="15815" type="DefaultVehicle" depart="20004.63" departLane="best" departSpeed="max">
        <route edges="338616239 4685636#1"/>
    </vehicle>
    <vehicle id="22144" type="DefaultVehicle" depart="20007.15" departLane="best" departSpeed="max">
        <route edges="338616239 4685636#1"/>
    </vehicle>
    <vehicle id="18990" type="DefaultVehicle" depart="20022.40" departLane="best" departSpeed="max">
        <route edges="338616239 4685636#1"/>
    </vehicle>
    <vehicle id="22281" type="DefaultVehicle" depart="20023.33" departLane="best" departSpeed="max">
        <route edges="338616239 4685636#1"/>
    </vehicle>
    <vehicle id="24095" type="DefaultVehicle" depart="20028.03" departLane="best" departSpeed="max">
        <route edges="-114684413#1 4685636#1"/>
    </vehicle>
    <vehicle id="25012" type="DefaultVehicle" depart="20044.65" departLane="best" departSpeed="max">
        <route edges="338616239 4685636#1"/>
    </vehicle>
    <vehicle id="27364" type="DefaultVehicle" depart="20109.59" departLane="best" departSpeed="max">
        <route edges="4615780#1 440078644#1"/>
    </vehicle>
    <vehicle id="19880" type="DefaultVehicle" depart="20184.82" departLane="best" departSpeed="max">
        <route edges="338616239 4685636#1"/>
    </vehicle>
    <vehicle id="27007" type="DefaultVehicle" depart="20200.99" departLane="best" departSpeed="max">
        <route edges="338616239 4685636#1"/>
    </vehicle>
    <vehicle id="27365" type="DefaultVehicle" depart="20203.94" departLane="best" departSpeed="max">
        <route edges="4615780#1 440078644#1"/>
    </vehicle>
    <vehicle id="29308" type="DefaultVehicle" depart="20255.64" departLane="best" departSpeed="max">
        <route edges="338616239 4685636#1"/>
    </vehicle>
    <vehicle id="20567" type="DefaultVehicle" depart="20257.80" departLane="best" departSpeed="max">
        <route edges="338616239 4685636#1"/>
    </vehicle>
    <vehicle id="23842" type="DefaultVehicle" depart="20268.78" departLane="best" departSpeed="max">
        <route edges="338616239 4685636#1"/>
    </vehicle>
    <vehicle id="28776" type="DefaultVehicle" depart="20282.50" departLane="best" departSpeed="max">
        <route edges="4615780#1 440078644#1"/>
    </vehicle>
    <vehicle id="19323" type="DefaultVehicle" depart="20289.77" departLane="best" departSpeed="max">
        <route edges="338616239 4685636#1"/>
    </vehicle>
    <vehicle id="28483" type="DefaultVehicle" depart="20299.28" departLane="best" departSpeed="max">
        <route edges="4615780#1 440078644#1"/>
    </vehicle>
    <vehicle id="19333" type="DefaultVehicle" depart="20312.93" departLane="best" departSpeed="max">
        <route edges="338616239 4685636#1"/>
    </vehicle>
    <vehicle id="30374" type="DefaultVehicle" depart="20314.00">
        <route edges="-44851670#2"/>
    </vehicle>
    <vehicle id="29865" type="DefaultVehicle" depart="20348.40" departLane="best" departSpeed="max">
        <route edges="4615780#1 440078644#1"/>
    </vehicle>
    <vehicle id="19677" type="DefaultVehicle" depart="20370.93" departLane="best" departSpeed="max">
        <route edges="338616239 4685636#1"/>
    </vehicle>
    <vehicle id="28189" type="DefaultVehicle" depart="20377.16" departLane="best" departSpeed="max">
        <route edges="338616239 4685636#1"/>
    </vehicle>
    <vehicle id="21629" type="DefaultVehicle" depart="20397.31" departLane="best" departSpeed="max">
        <route edges="338616239 4685636#1"/>
    </vehicle>
    <vehicle id="25447" type="DefaultVehicle" depart="20406.26" departLane="best" departSpeed="max">
        <route edges="4615780#1 440078644#1"/>
    </vehicle>
    <vehicle id="29108" type="DefaultVehicle" depart="20409.04" departLane="best" departSpeed="max">
        <route edges="338616239 4685636#1"/>
    </vehicle>
    <vehicle id="27381" type="DefaultVehicle" depart="20417.65" departLane="best" departSpeed="max">
        <route edges="4615780#1 440078644#1"/>
    </vehicle>
    <vehicle id="22978" type="DefaultVehicle" depart="20422.54" departLane="best" departSpeed="max">
        <route edges="338616239 4685636#1"/>
    </vehicle>
    <vehicle id="30359" type="DefaultVehicle" depart="20428.78" departLane="best" departSpeed="max">
        <route edges="4615780#1 440078644#1"/>
    </vehicle>
    <vehicle id="26469" type="DefaultVehicle" depart="20433.59" departLane="best" departSpeed="max">
        <route edges="338616239 4685636#1"/>
    </vehicle>
    <vehicle id="29666" type="DefaultVehicle" depart="20438.51" departLane="best" departSpeed="max">
        <route edges="4615780#1 440078644#1"/>
    </vehicle>
    <vehicle id="29861" type="DefaultVehicle" depart="20439.08" departLane="best" departSpeed="max">
        <route edges="338616239 4685636#1"/>
    </vehicle>
    <vehicle id="30386" type="DefaultVehicle" depart="20440.23" departLane="best" departSpeed="max">
        <route edges="4615780#1 440078644#1"/>
    </vehicle>
    <vehicle id="28089" type="DefaultVehicle" depart="20458.10" departLane="best" departSpeed="max">
        <route edges="338616239 4685636#1"/>
    </vehicle>
    <vehicle id="20535" type="DefaultVehicle" depart="20461.45" departLane="best" departSpeed="max">
        <route edges="338616239 4685636#1"/>
    </vehicle>
    <vehicle id="30128" type="DefaultVehicle" depart="20480.02" departLane="best" departSpeed="max">
        <route edges="338616239 4685636#1"/>
    </vehicle>
    <vehicle id="31330" type="DefaultVehicle" depart="20483.43" departLane="best" departSpeed="max">
        <route edges="4615780#1 440078644#1"/>
    </vehicle>
    <vehicle id="21770" type="DefaultVehicle" depart="20496.17" departLane="best" departSpeed="max">
        <route edges="338616239 4685636#1"/>
    </vehicle>
    <vehicle id="20395" type="DefaultVehicle" depart="20505.38" departLane="best" departSpeed="max">
        <route edges="338616239 4685636#1"/>
    </vehicle>
    <vehicle id="22436" type="DefaultVehicle" depart="20515.73" departLane="best" departSpeed="max">
        <route edges="338616239 4685636#1"/>
    </vehicle>
    <vehicle id="31583" type="DefaultVehicle" depart="20518.36" departLane="best" departSpeed="max">
        <route edges="4615780#1 440078644#1"/>
    </vehicle>
    <vehicle id="26480" type="DefaultVehicle" depart="20522.00" departLane="best" departSpeed="max">
        <route edges="4615780#1 440078644#1"/>
    </vehicle>
    <vehicle id="26820" type="DefaultVehicle" depart="20540.56" departLane="best" departSpeed="max">
        <route edges="338616239 4685636#1"/>
    </vehicle>
    <vehicle id="32850" type="DefaultVehicle" depart="20547.21" departLane="best" departSpeed="max">
        <route edges="338616239 4685636#1"/>
    </vehicle>
    <vehicle id="26608" type="DefaultVehicle" depart="20558.03" departLane="best" departSpeed="max">
        <route edges="338616239 4685636#1"/>
    </vehicle>