<?xml version="1.0" encoding="UTF-8"?>
<!-- Auto-generated Traffic Pattern Library -->
<!-- Total Duration: 7200s (2.0 hours) -->
<!-- Network: grid3x3.net.xml -->
<routes>
    <vType id="passenger" accel="0.8" decel="4.5" length="5.0" minGap="2.5" maxSpeed="13.89" vClass="passenger" speedFactor="1.0" speedDev="0.1" jmIgnoreJunctionFoeProb="1.0" jmIgnoreKeepClearTime="-1" />

    <route id="route_0" edges="A0A1 A1B1" />
    <route id="route_1" edges="A0A1 A1A2" />
    <route id="route_2" edges="A0A1 A1A2" />
    <route id="route_3" edges="A0A1 A1left1" />
    <route id="route_4" edges="A0A1 A1A0" />
    <route id="route_5" edges="A0B0 B0bottom1" />
    <route id="route_6" edges="A0B0 B0C0" />
    <route id="route_7" edges="A0B0 B0C0" />
    <route id="route_8" edges="A0B0 B0B1" />
    <route id="route_9" edges="A0B0 B0A0" />
    <route id="route_10" edges="A0bottom0 bottom0A0" />
    <route id="route_11" edges="A0left0 left0A0" />
    <route id="route_12" edges="A1A0 A0left0" />
    <route id="route_13" edges="A1A0 A0bottom0" />
    <route id="route_14" edges="A1A0 A0bottom0" />
    <route id="route_15" edges="A1A0 A0B0" />
    <route id="route_16" edges="A1A0 A0A1" />
    <route id="route_17" edges="A1A2 A2B2" />
    <route id="route_18" edges="A1A2 A2top0" />
    <route id="route_19" edges="A1A2 A2top0" />
    <route id="route_20" edges="A1A2 A2left2" />
    <route id="route_21" edges="A1A2 A2A1" />
    <route id="route_22" edges="A1B1 B1B0" />
    <route id="route_23" edges="A1B1 B1C1" />
    <route id="route_24" edges="A1B1 B1C1" />
    <route id="route_25" edges="A1B1 B1B2" />
    <route id="route_26" edges="A1B1 B1A1" />
    <route id="route_27" edges="A1left1 left1A1" />
    <route id="route_28" edges="A2A1 A1left1" />
    <route id="route_29" edges="A2A1 A1A0" />
    <route id="route_30" edges="A2A1 A1A0" />
    <route id="route_31" edges="A2A1 A1B1" />
    <route id="route_32" edges="A2A1 A1A2" />
    <route id="route_33" edges="A2B2 B2B1" />
    <route id="route_34" edges="A2B2 B2C2" />
    <route id="route_35" edges="A2B2 B2C2" />
    <route id="route_36" edges="A2B2 B2top1" />
    <route id="route_37" edges="A2B2 B2A2" />
    <route id="route_38" edges="A2left2 left2A2" />
    <route id="route_39" edges="A2top0 top0A2" />
    <route id="route_40" edges="B0A0 A0A1" />
    <route id="route_41" edges="B0A0 A0left0" />
    <route id="route_42" edges="B0A0 A0left0" />
    <route id="route_43" edges="B0A0 A0bottom0" />
    <route id="route_44" edges="B0A0 A0B0" />
    <route id="route_45" edges="B0B1 B1C1" />
    <route id="route_46" edges="B0B1 B1B2" />
    <route id="route_47" edges="B0B1 B1B2" />
    <route id="route_48" edges="B0B1 B1A1" />
    <route id="route_49" edges="B0B1 B1B0" />
    <route id="route_50" edges="B0C0 C0bottom2" />
    <route id="route_51" edges="B0C0 C0right0" />
    <route id="route_52" edges="B0C0 C0right0" />
    <route id="route_53" edges="B0C0 C0C1" />
    <route id="route_54" edges="B0C0 C0B0" />
    <route id="route_55" edges="B0bottom1 bottom1B0" />
    <route id="route_56" edges="B1A1 A1A2" />
    <route id="route_57" edges="B1A1 A1left1" />
    <route id="route_58" edges="B1A1 A1left1" />
    <route id="route_59" edges="B1A1 A1A0" />
    <route id="route_60" edges="B1A1 A1B1" />
    <route id="route_61" edges="B1B0 B0A0" />
    <route id="route_62" edges="B1B0 B0bottom1" />
    <route id="route_63" edges="B1B0 B0bottom1" />
    <route id="route_64" edges="B1B0 B0C0" />
    <route id="route_65" edges="B1B0 B0B1" />
    <route id="route_66" edges="B1B2 B2C2" />
    <route id="route_67" edges="B1B2 B2top1" />
    <route id="route_68" edges="B1B2 B2top1" />
    <route id="route_69" edges="B1B2 B2A2" />
    <route id="route_70" edges="B1B2 B2B1" />
    <route id="route_71" edges="B1C1 C1C0" />
    <route id="route_72" edges="B1C1 C1right1" />
    <route id="route_73" edges="B1C1 C1right1" />
    <route id="route_74" edges="B1C1 C1C2" />
    <route id="route_75" edges="B1C1 C1B1" />
    <route id="route_76" edges="B2A2 A2top0" />
    <route id="route_77" edges="B2A2 A2left2" />
    <route id="route_78" edges="B2A2 A2left2" />
    <route id="route_79" edges="B2A2 A2A1" />
    <route id="route_80" edges="B2A2 A2B2" />
    <route id="route_81" edges="B2B1 B1A1" />
    <route id="route_82" edges="B2B1 B1B0" />
    <route id="route_83" edges="B2B1 B1B0" />
    <route id="route_84" edges="B2B1 B1C1" />
    <route id="route_85" edges="B2B1 B1B2" />
    <route id="route_86" edges="B2C2 C2C1" />
    <route id="route_87" edges="B2C2 C2right2" />
    <route id="route_88" edges="B2C2 C2right2" />
    <route id="route_89" edges="B2C2 C2top2" />
    <route id="route_90" edges="B2C2 C2B2" />
    <route id="route_91" edges="B2top1 top1B2" />
    <route id="route_92" edges="C0B0 B0B1" />
    <route id="route_93" edges="C0B0 B0A0" />
    <route id="route_94" edges="C0B0 B0A0" />
    <route id="route_95" edges="C0B0 B0bottom1" />
    <route id="route_96" edges="C0B0 B0C0" />
    <route id="route_97" edges="C0C1 C1right1" />
    <route id="route_98" edges="C0C1 C1C2" />
    <route id="route_99" edges="C0C1 C1C2" />
    <route id="route_100" edges="C0C1 C1B1" />
    <route id="route_101" edges="C0C1 C1C0" />
    <route id="route_102" edges="C0bottom2 bottom2C0" />
    <route id="route_103" edges="C0right0 right0C0" />
    <route id="route_104" edges="C1B1 B1B2" />
    <route id="route_105" edges="C1B1 B1A1" />
    <route id="route_106" edges="C1B1 B1A1" />
    <route id="route_107" edges="C1B1 B1B0" />
    <route id="route_108" edges="C1B1 B1C1" />
    <route id="route_109" edges="C1C0 C0B0" />
    <route id="route_110" edges="C1C0 C0bottom2" />
    <route id="route_111" edges="C1C0 C0bottom2" />
    <route id="route_112" edges="C1C0 C0right0" />
    <route id="route_113" edges="C1C0 C0C1" />
    <route id="route_114" edges="C1C2 C2right2" />
    <route id="route_115" edges="C1C2 C2top2" />
    <route id="route_116" edges="C1C2 C2top2" />
    <route id="route_117" edges="C1C2 C2B2" />
    <route id="route_118" edges="C1C2 C2C1" />
    <route id="route_119" edges="C1right1 right1C1" />
    <route id="route_120" edges="C2B2 B2top1" />
    <route id="route_121" edges="C2B2 B2A2" />
    <route id="route_122" edges="C2B2 B2A2" />
    <route id="route_123" edges="C2B2 B2B1" />
    <route id="route_124" edges="C2B2 B2C2" />
    <route id="route_125" edges="C2C1 C1B1" />
    <route id="route_126" edges="C2C1 C1C0" />
    <route id="route_127" edges="C2C1 C1C0" />
    <route id="route_128" edges="C2C1 C1right1" />
    <route id="route_129" edges="C2C1 C1C2" />
    <route id="route_130" edges="C2right2 right2C2" />
    <route id="route_131" edges="C2top2 top2C2" />
    <route id="route_132" edges="bottom0A0 A0B0" />
    <route id="route_133" edges="bottom0A0 A0A1" />
    <route id="route_134" edges="bottom0A0 A0A1" />
    <route id="route_135" edges="bottom0A0 A0left0" />
    <route id="route_136" edges="bottom0A0 A0bottom0" />
    <route id="route_137" edges="bottom1B0 B0C0" />
    <route id="route_138" edges="bottom1B0 B0B1" />
    <route id="route_139" edges="bottom1B0 B0B1" />
    <route id="route_140" edges="bottom1B0 B0A0" />
    <route id="route_141" edges="bottom1B0 B0bottom1" />
    <route id="route_142" edges="bottom2C0 C0right0" />
    <route id="route_143" edges="bottom2C0 C0C1" />
    <route id="route_144" edges="bottom2C0 C0C1" />
    <route id="route_145" edges="bottom2C0 C0B0" />
    <route id="route_146" edges="bottom2C0 C0bottom2" />
    <route id="route_147" edges="left0A0 A0bottom0" />
    <route id="route_148" edges="left0A0 A0B0" />
    <route id="route_149" edges="left0A0 A0B0" />
    <route id="route_150" edges="left0A0 A0A1" />
    <route id="route_151" edges="left0A0 A0left0" />
    <route id="route_152" edges="left1A1 A1A0" />
    <route id="route_153" edges="left1A1 A1B1" />
    <route id="route_154" edges="left1A1 A1B1" />
    <route id="route_155" edges="left1A1 A1A2" />
    <route id="route_156" edges="left1A1 A1left1" />
    <route id="route_157" edges="left2A2 A2A1" />
    <route id="route_158" edges="left2A2 A2B2" />
    <route id="route_159" edges="left2A2 A2B2" />
    <route id="route_160" edges="left2A2 A2top0" />
    <route id="route_161" edges="left2A2 A2left2" />
    <route id="route_162" edges="right0C0 C0C1" />
    <route id="route_163" edges="right0C0 C0B0" />
    <route id="route_164" edges="right0C0 C0B0" />
    <route id="route_165" edges="right0C0 C0bottom2" />
    <route id="route_166" edges="right0C0 C0right0" />
    <route id="route_167" edges="right1C1 C1C2" />
    <route id="route_168" edges="right1C1 C1B1" />
    <route id="route_169" edges="right1C1 C1B1" />
    <route id="route_170" edges="right1C1 C1C0" />
    <route id="route_171" edges="right1C1 C1right1" />
    <route id="route_172" edges="right2C2 C2top2" />
    <route id="route_173" edges="right2C2 C2B2" />
    <route id="route_174" edges="right2C2 C2B2" />
    <route id="route_175" edges="right2C2 C2C1" />
    <route id="route_176" edges="right2C2 C2right2" />
    <route id="route_177" edges="top0A2 A2left2" />
    <route id="route_178" edges="top0A2 A2A1" />
    <route id="route_179" edges="top0A2 A2A1" />
    <route id="route_180" edges="top0A2 A2B2" />
    <route id="route_181" edges="top0A2 A2top0" />
    <route id="route_182" edges="top1B2 B2A2" />
    <route id="route_183" edges="top1B2 B2B1" />
    <route id="route_184" edges="top1B2 B2B1" />
    <route id="route_185" edges="top1B2 B2C2" />
    <route id="route_186" edges="top1B2 B2top1" />
    <route id="route_187" edges="top2C2 C2B2" />
    <route id="route_188" edges="top2C2 C2C1" />
    <route id="route_189" edges="top2C2 C2C1" />
    <route id="route_190" edges="top2C2 C2right2" />
    <route id="route_191" edges="top2C2 C2top2" />


    <!-- Segment 1: BALANCED (DIR_A=1.0x DIR_B=1.0x DIR_C=1.0x DIR_D=1.0x DIR_E=1.0x DIR_F=1.0x DIR_G=1.0x DIR_H=1.0x DIR_I=1.0x DIR_J=1.0x DIR_K=1.0x DIR_L=1.0x DIR_M=1.0x DIR_N=1.0x DIR_O=1.0x DIR_P=1.0x DIR_Q=1.0x DIR_R=1.0x DIR_S=1.0x DIR_T=1.0x DIR_U=1.0x DIR_V=1.0x DIR_W=1.0x DIR_X=1.0x DIR_Y=1.0x DIR_Z=1.0x DIR_[=1.0x DIR_\=1.0x DIR_]=1.0x DIR_^=1.0x DIR__=1.0x DIR_`=1.0x DIR_a=1.0x DIR_b=1.0x DIR_c=1.0x DIR_d=1.0x DIR_e=1.0x DIR_f=1.0x DIR_g=1.0x DIR_h=1.0x DIR_i=1.0x DIR_j=1.0x DIR_k=1.0x DIR_l=1.0x DIR_m=1.0x DIR_n=1.0x DIR_o=1.0x DIR_p=1.0x) | 0-600s -->
    <vehicle id="veh_0" type="passenger" route="route_14" depart="0.30" />
    <vehicle id="veh_1" type="passenger" route="route_110" depart="0.72" />
    <vehicle id="veh_2" type="passenger" route="route_24" depart="0.85" />
    <vehicle id="veh_3" type="passenger" route="route_61" depart="1.17" />
    <vehicle id="veh_4" type="passenger" route="route_162" depart="1.49" />
    <vehicle id="veh_5" type="passenger" route="route_190" depart="1.51" />
    <vehicle id="veh_6" type="passenger" route="route_51" depart="1.55" />
    <vehicle id="veh_7" type="passenger" route="route_134" depart="1.72" />
    <vehicle id="veh_8" type="passenger" route="route_169" depart="1.78" />
    <vehicle id="veh_9" type="passenger" route="route_43" depart="2.62" />
    <vehicle id="veh_10" type="passenger" route="route_14" depart="2.82" />
    <vehicle id="veh_11" type="passenger" route="route_38" depart="2.83" />
    <vehicle id="veh_12" type="passenger" route="route_96" depart="3.53" />
    <vehicle id="veh_13" type="passenger" route="route_129" depart="3.57" />
    <vehicle id="veh_14" type="passenger" route="route_169" depart="3.61" />
    <vehicle id="veh_15" type="passenger" route="route_177" depart="3.77" />
    <vehicle id="veh_16" type="passenger" route="route_134" depart="3.89" />
    <vehicle id="veh_17" type="passenger" route="route_24" depart="4.17" />
    <vehicle id="veh_18" type="passenger" route="route_88" depart="4.38" />
    <vehicle id="veh_19" type="passenger" route="route_46" depart="4.65" />
    <vehicle id="veh_20" type="passenger" route="route_162" depart="4.68" />
    <vehicle id="veh_21" type="passenger" route="route_153" depart="4.73" />
    <vehicle id="veh_22" type="passenger" route="route_96" depart="4.80" />
    <vehicle id="veh_23" type="passenger" route="route_148" depart="4.80" />
    <vehicle id="veh_24" type="passenger" route="route_20" depart="4.92" />
    <vehicle id="veh_25" type="passenger" route="route_106" depart="5.41" />
    <vehicle id="veh_26" type="passenger" route="route_43" depart="5.45" />
    <vehicle id="veh_27" type="passenger" route="route_40" depart="5.77" />
    <vehicle id="veh_28" type="passenger" route="route_54" depart="5.92" />
    <vehicle id="veh_29" type="passenger" route="route_113" depart="5.97" />
    <vehicle id="veh_30" type="passenger" route="route_171" depart="6.36" />
    <vehicle id="veh_31" type="passenger" route="route_6" depart="7.40" />
    <vehicle id="veh_32" type="passenger" route="route_148" depart="7.55" />
    <vehicle id="veh_33" type="passenger" route="route_164" depart="7.72" />
    <vehicle id="veh_34" type="passenger" route="route_11" depart="8.53" />
    <vehicle id="veh_35" type="passenger" route="route_59" depart="8.62" />
    <vehicle id="veh_36" type="passenger" route="route_9" depart="8.92" />
    <vehicle id="veh_37" type="passenger" route="route_177" depart="9.11" />
    <vehicle id="veh_38" type="passenger" route="route_87" depart="9.12" />
    <vehicle id="veh_39" type="passenger" route="route_177" depart="9.43" />
    <vehicle id="veh_40" type="passenger" route="route_47" depart="9.64" />
    <vehicle id="veh_41" type="passenger" route="route_156" depart="9.66" />
    <vehicle id="veh_42" type="passenger" route="route_94" depart="9.68" />
    <vehicle id="veh_43" type="passenger" route="route_154" depart="9.71" />
    <vehicle id="veh_44" type="passenger" route="route_87" depart="9.81" />
    <vehicle id="veh_45" type="passenger" route="route_187" depart="9.82" />
    <vehicle id="veh_46" type="passenger" route="route_19" depart="10.01" />
    <vehicle id="veh_47" type="passenger" route="route_87" depart="10.09" />
    <vehicle id="veh_48" type="passenger" route="route_164" depart="11.07" />
    <vehicle id="veh_49" type="passenger" route="route_185" depart="11.24" />
    <vehicle id="veh_50" type="passenger" route="route_42" depart="11.43" />
    <vehicle id="veh_51" type="passenger" route="route_93" depart="11.43" />
    <vehicle id="veh_52" type="passenger" route="route_74" depart="11.82" />
    <vehicle id="veh_53" type="passenger" route="route_67" depart="11.95" />
    <vehicle id="veh_54" type="passenger" route="route_67" depart="12.14" />
    <vehicle id="veh_55" type="passenger" route="route_85" depart="12.45" />
    <vehicle id="veh_56" type="passenger" route="route_1" depart="12.53" />
    <vehicle id="veh_57" type="passenger" route="route_177" depart="12.79" />
    <vehicle id="veh_58" type="passenger" route="route_94" depart="13.11" />
    <vehicle id="veh_59" type="passenger" route="route_53" depart="13.38" />
    <vehicle id="veh_60" type="passenger" route="route_138" depart="13.48" />
    <vehicle id="veh_61" type="passenger" route="route_7" depart="13.56" />
    <vehicle id="veh_62" type="passenger" route="route_51" depart="13.66" />
    <vehicle id="veh_63" type="passenger" route="route_62" depart="13.94" />
    <vehicle id="veh_64" type="passenger" route="route_130" depart="14.30" />
    <vehicle id="veh_65" type="passenger" route="route_5" depart="14.53" />
    <vehicle id="veh_66" type="passenger" route="route_139" depart="14.82" />
    <vehicle id="veh_67" type="passenger" route="route_110" depart="15.01" />
    <vehicle id="veh_68" type="passenger" route="route_98" depart="15.08" />
    <vehicle id="veh_69" type="passenger" route="route_139" depart="15.78" />
    <vehicle id="veh_70" type="passenger" route="route_139" depart="15.81" />
    <vehicle id="veh_71" type="passenger" route="route_166" depart="16.46" />
    <vehicle id="veh_72" type="passenger" route="route_20" depart="16.74" />
    <vehicle id="veh_73" type="passenger" route="route_62" depart="16.81" />
    <vehicle id="veh_74" type="passenger" route="route_119" depart="16.90" />
    <vehicle id="veh_75" type="passenger" route="route_24" depart="17.32" />
    <vehicle id="veh_76" type="passenger" route="route_89" depart="17.74" />
    <vehicle id="veh_77" type="passenger" route="route_34" depart="18.03" />
    <vehicle id="veh_78" type="passenger" route="route_51" depart="18.32" />
    <vehicle id="veh_79" type="passenger" route="route_144" depart="18.35" />
    <vehicle id="veh_80" type="passenger" route="route_144" depart="18.46" />
    <vehicle id="veh_81" type="passenger" route="route_174" depart="18.50" />
    <vehicle id="veh_82" type="passenger" route="route_154" depart="18.60" />
    <vehicle id="veh_83" type="passenger" route="route_119" depart="18.71" />
    <vehicle id="veh_84" type="passenger" route="route_28" depart="18.73" />
    <vehicle id="veh_85" type="passenger" route="route_73" depart="18.92" />
    <vehicle id="veh_86" type="passenger" route="route_109" depart="19.39" />
    <vehicle id="veh_87" type="passenger" route="route_40" depart="19.45" />
    <vehicle id="veh_88" type="passenger" route="route_134" depart="19.84" />
    <vehicle id="veh_89" type="passenger" route="route_68" depart="20.23" />
    <vehicle id="veh_90" type="passenger" route="route_75" depart="20.26" />
    <vehicle id="veh_91" type="passenger" route="route_173" depart="20.30" />
    <vehicle id="veh_92" type="passenger" route="route_98" depart="20.33" />
    <vehicle id="veh_93" type="passenger" route="route_11" depart="20.54" />
    <vehicle id="veh_94" type="passenger" route="route_82" depart="20.69" />
    <vehicle id="veh_95" type="passenger" route="route_68" depart="21.31" />
    <vehicle id="veh_96" type="passenger" route="route_153" depart="21.42" />
    <vehicle id="veh_97" type="passenger" route="route_45" depart="21.88" />
    <vehicle id="veh_98" type="passenger" route="route_74" depart="21.92" />
    <vehicle id="veh_99" type="passenger" route="route_137" depart="22.46" />
    <vehicle id="veh_100" type="passenger" route="route_190" depart="22.59" />
    <vehicle id="veh_101" type="passenger" route="route_30" depart="22.81" />
    <vehicle id="veh_102" type="passenger" route="route_54" depart="22.81" />
    <vehicle id="veh_103" type="passenger" route="route_2" depart="23.04" />
    <vehicle id="veh_104" type="passenger" route="route_95" depart="23.20" />
    <vehicle id="veh_105" type="passenger" route="route_119" depart="23.28" />
    <vehicle id="veh_106" type="passenger" route="route_58" depart="23.53" />
    <vehicle id="veh_107" type="passenger" route="route_189" depart="23.63" />
    <vehicle id="veh_108" type="passenger" route="route_57" depart="23.84" />
    <vehicle id="veh_109" type="passenger" route="route_54" depart="23.86" />
    <vehicle id="veh_110" type="passenger" route="route_182" depart="23.93" />
    <vehicle id="veh_111" type="passenger" route="route_88" depart="24.14" />
    <vehicle id="veh_112" type="passenger" route="route_13" depart="24.52" />
    <vehicle id="veh_113" type="passenger" route="route_161" depart="24.78" />
    <vehicle id="veh_114" type="passenger" route="route_32" depart="24.84" />
    <vehicle id="veh_115" type="passenger" route="route_119" depart="24.88" />
    <vehicle id="veh_116" type="passenger" route="route_182" depart="24.92" />
    <vehicle id="veh_117" type="passenger" route="route_14" depart="25.04" />
    <vehicle id="veh_118" type="passenger" route="route_17" depart="25.10" />
    <vehicle id="veh_119" type="passenger" route="route_1" depart="25.15" />
    <vehicle id="veh_120" type="passenger" route="route_159" depart="25.68" />
    <vehicle id="veh_121" type="passenger" route="route_54" depart="25.73" />
    <vehicle id="veh_122" type="passenger" route="route_126" depart="25.85" />
    <vehicle id="veh_123" type="passenger" route="route_98" depart="26.04" />
    <vehicle id="veh_124" type="passenger" route="route_149" depart="26.13" />
    <vehicle id="veh_125" type="passenger" route="route_113" depart="26.27" />
    <vehicle id="veh_126" type="passenger" route="route_53" depart="26.55" />
    <vehicle id="veh_127" type="passenger" route="route_172" depart="26.64" />
    <vehicle id="veh_128" type="passenger" route="route_19" depart="26.91" />
    <vehicle id="veh_129" type="passenger" route="route_174" depart="26.95" />
    <vehicle id="veh_130" type="passenger" route="route_77" depart="27.14" />
    <vehicle id="veh_131" type="passenger" route="route_181" depart="27.16" />
    <vehicle id="veh_132" type="passenger" route="route_169" depart="27.27" />
    <vehicle id="veh_133" type="passenger" route="route_147" depart="27.97" />
    <vehicle id="veh_134" type="passenger" route="route_85" depart="28.04" />
    <vehicle id="veh_135" type="passenger" route="route_42" depart="28.19" />
    <vehicle id="veh_136" type="passenger" route="route_136" depart="28.62" />
    <vehicle id="veh_137" type="passenger" route="route_116" depart="28.77" />
    <vehicle id="veh_138" type="passenger" route="route_183" depart="28.79" />
    <vehicle id="veh_139" type="passenger" route="route_144" depart="28.93" />
    <vehicle id="veh_140" type="passenger" route="route_19" depart="28.97" />
    <vehicle id="veh_141" type="passenger" route="route_115" depart="29.03" />
    <vehicle id="veh_142" type="passenger" route="route_35" depart="29.16" />
    <vehicle id="veh_143" type="passenger" route="route_41" depart="29.23" />
    <vehicle id="veh_144" type="passenger" route="route_57" depart="29.28" />
    <vehicle id="veh_145" type="passenger" route="route_103" depart="29.30" />
    <vehicle id="veh_146" type="passenger" route="route_110" depart="29.75" />
    <vehicle id="veh_147" type="passenger" route="route_109" depart="29.93" />
    <vehicle id="veh_148" type="passenger" route="route_104" depart="29.93" />
    <vehicle id="veh_149" type="passenger" route="route_38" depart="29.98" />
    <vehicle id="veh_150" type="passenger" route="route_155" depart="30.02" />
    <vehicle id="veh_151" type="passenger" route="route_174" depart="30.06" />
    <vehicle id="veh_152" type="passenger" route="route_83" depart="30.36" />
    <vehicle id="veh_153" type="passenger" route="route_172" depart="30.42" />
    <vehicle id="veh_154" type="passenger" route="route_147" depart="30.51" />
    <vehicle id="veh_155" type="passenger" route="route_100" depart="30.51" />
    <vehicle id="veh_156" type="passenger" route="route_78" depart="30.53" />
    <vehicle id="veh_157" type="passenger" route="route_7" depart="30.66" />
    <vehicle id="veh_158" type="passenger" route="route_87" depart="30.70" />
    <vehicle id="veh_159" type="passenger" route="route_114" depart="31.11" />
    <vehicle id="veh_160" type="passenger" route="route_18" depart="31.47" />
    <vehicle id="veh_161" type="passenger" route="route_110" depart="31.62" />
    <vehicle id="veh_162" type="passenger" route="route_75" depart="31.72" />
    <vehicle id="veh_163" type="passenger" route="route_136" depart="31.80" />
    <vehicle id="veh_164" type="passenger" route="route_189" depart="31.84" />
    <vehicle id="veh_165" type="passenger" route="route_129" depart="31.99" />
    <vehicle id="veh_166" type="passenger" route="route_44" depart="32.07" />
    <vehicle id="veh_167" type="passenger" route="route_161" depart="32.32" />
    <vehicle id="veh_168" type="passenger" route="route_6" depart="32.34" />
    <vehicle id="veh_169" type="passenger" route="route_107" depart="32.56" />
    <vehicle id="veh_170" type="passenger" route="route_85" depart="32.58" />
    <vehicle id="veh_171" type="passenger" route="route_109" depart="32.64" />
    <vehicle id="veh_172" type="passenger" route="route_63" depart="33.09" />
    <vehicle id="veh_173" type="passenger" route="route_46" depart="33.32" />
    <vehicle id="veh_174" type="passenger" route="route_143" depart="33.33" />
    <vehicle id="veh_175" type="passenger" route="route_154" depart="33.37" />
    <vehicle id="veh_176" type="passenger" route="route_93" depart="33.66" />
    <vehicle id="veh_177" type="passenger" route="route_127" depart="34.08" />
    <vehicle id="veh_178" type="passenger" route="route_99" depart="34.21" />
    <vehicle id="veh_179" type="passenger" route="route_58" depart="34.89" />
    <vehicle id="veh_180" type="passenger" route="route_72" depart="35.08" />
    <vehicle id="veh_181" type="passenger" route="route_82" depart="35.10" />
    <vehicle id="veh_182" type="passenger" route="route_41" depart="35.10" />
    <vehicle id="veh_183" type="passenger" route="route_163" depart="35.10" />
    <vehicle id="veh_184" type="passenger" route="route_114" depart="35.43" />
    <vehicle id="veh_185" type="passenger" route="route_133" depart="35.68" />
    <vehicle id="veh_186" type="passenger" route="route_13" depart="35.94" />
    <vehicle id="veh_187" type="passenger" route="route_20" depart="35.98" />
    <vehicle id="veh_188" type="passenger" route="route_42" depart="36.15" />
    <vehicle id="veh_189" type="passenger" route="route_59" depart="36.18" />
    <vehicle id="veh_190" type="passenger" route="route_1" depart="36.41" />
    <vehicle id="veh_191" type="passenger" route="route_77" depart="36.64" />
    <vehicle id="veh_192" type="passenger" route="route_164" depart="36.80" />
    <vehicle id="veh_193" type="passenger" route="route_19" depart="36.80" />
    <vehicle id="veh_194" type="passenger" route="route_2" depart="36.93" />
    <vehicle id="veh_195" type="passenger" route="route_191" depart="36.98" />
    <vehicle id="veh_196" type="passenger" route="route_85" depart="37.00" />
    <vehicle id="veh_197" type="passenger" route="route_81" depart="37.13" />
    <vehicle id="veh_198" type="passenger" route="route_50" depart="37.67" />
    <vehicle id="veh_199" type="passenger" route="route_149" depart="37.86" />
    <vehicle id="veh_200" type="passenger" route="route_72" depart="37.87" />
    <vehicle id="veh_201" type="passenger" route="route_153" depart="37.88" />
    <vehicle id="veh_202" type="passenger" route="route_12" depart="37.97" />
    <vehicle id="veh_203" type="passenger" route="route_63" depart="38.81" />
    <vehicle id="veh_204" type="passenger" route="route_191" depart="38.85" />
    <vehicle id="veh_205" type="passenger" route="route_101" depart="38.88" />
    <vehicle id="veh_206" type="passenger" route="route_39" depart="38.95" />
    <vehicle id="veh_207" type="passenger" route="route_14" depart="39.03" />
    <vehicle id="veh_208" type="passenger" route="route_179" depart="39.06" />
    <vehicle id="veh_209" type="passenger" route="route_76" depart="39.22" />
    <vehicle id="veh_210" type="passenger" route="route_143" depart="39.36" />
    <vehicle id="veh_211" type="passenger" route="route_163" depart="39.47" />
    <vehicle id="veh_212" type="passenger" route="route_1" depart="39.75" />
    <vehicle id="veh_213" type="passenger" route="route_87" depart="40.10" />
    <vehicle id="veh_214" type="passenger" route="route_180" depart="40.42" />
    <vehicle id="veh_215" type="passenger" route="route_68" depart="40.43" />
    <vehicle id="veh_216" type="passenger" route="route_171" depart="40.46" />
    <vehicle id="veh_217" type="passenger" route="route_93" depart="40.54" />
    <vehicle id="veh_218" type="passenger" route="route_21" depart="40.63" />
    <vehicle id="veh_219" type="passenger" route="route_141" depart="40.72" />
    <vehicle id="veh_220" type="passenger" route="route_133" depart="40.96" />
    <vehicle id="veh_221" type="passenger" route="route_123" depart="40.98" />
    <vehicle id="veh_222" type="passenger" route="route_57" depart="41.27" />
    <vehicle id="veh_223" type="passenger" route="route_55" depart="41.29" />
    <vehicle id="veh_224" type="passenger" route="route_77" depart="41.31" />
    <vehicle id="veh_225" type="passenger" route="route_122" depart="41.42" />
    <vehicle id="veh_226" type="passenger" route="route_130" depart="41.47" />
    <vehicle id="veh_227" type="passenger" route="route_35" depart="41.47" />
    <vehicle id="veh_228" type="passenger" route="route_36" depart="41.60" />
    <vehicle id="veh_229" type="passenger" route="route_28" depart="41.83" />
    <vehicle id="veh_230" type="passenger" route="route_93" depart="41.88" />
    <vehicle id="veh_231" type="passenger" route="route_110" depart="41.92" />
    <vehicle id="veh_232" type="passenger" route="route_25" depart="42.26" />
    <vehicle id="veh_233" type="passenger" route="route_18" depart="42.28" />
    <vehicle id="veh_234" type="passenger" route="route_62" depart="42.46" />
    <vehicle id="veh_235" type="passenger" route="route_98" depart="42.59" />
    <vehicle id="veh_236" type="passenger" route="route_11" depart="42.87" />
    <vehicle id="veh_237" type="passenger" route="route_122" depart="43.00" />
    <vehicle id="veh_238" type="passenger" route="route_179" depart="43.21" />
    <vehicle id="veh_239" type="passenger" route="route_186" depart="43.43" />
    <vehicle id="veh_240" type="passenger" route="route_78" depart="43.54" />
    <vehicle id="veh_241" type="passenger" route="route_63" depart="43.85" />
    <vehicle id="veh_242" type="passenger" route="route_13" depart="44.24" />
    <vehicle id="veh_243" type="passenger" route="route_139" depart="44.62" />
    <vehicle id="veh_244" type="passenger" route="route_134" depart="44.67" />
    <vehicle id="veh_245" type="passenger" route="route_106" depart="44.74" />
    <vehicle id="veh_246" type="passenger" route="route_19" depart="44.87" />
    <vehicle id="veh_247" type="passenger" route="route_147" depart="45.42" />
    <vehicle id="veh_248" type="passenger" route="route_74" depart="45.49" />
    <vehicle id="veh_249" type="passenger" route="route_125" depart="45.55" />
    <vehicle id="veh_250" type="passenger" route="route_164" depart="45.67" />
    <vehicle id="veh_251" type="passenger" route="route_35" depart="45.75" />