<?xml version="1.0" encoding="UTF-8"?>

<!-- generated on 2026-02-07 22:07:44.994804 by Eclipse SUMO randomTrips.py UNKNOWN
<configuration>
    <net-file value="grid3x3.net.xml"/>
    <additional-files value="vtypes.add.xml"/>
    <output-trip-file value="grid3x3.trips.xml"/>
    <route-file value="grid3x3.rou.xml"/>
    <trip-attributes value="type=&quot;mixed&quot;"/>
    <period value="1.0"/>
</configuration>
-->

<!-- generated on 2026-02-07T22:07:44.934060+01:00 by Eclipse SUMO duarouter 1.26.0
<duarouterConfiguration xmlns:xsi="http://www.w3.org/2001/XMLSchema-instance" xsi:noNamespaceSchemaLocation="http://sumo.dlr.de/xsd/duarouterConfiguration.xsd">

    <input>
        <net-file value="grid3x3.net.xml"/>
        <additional-files value="vtypes.add.xml"/>
        <route-files value="grid3x3.trips.xml"/>
    </input>

    <output>
        <output-file value="grid3x3.rou.xml"/>
        <alternatives-output value="NUL"/>
    </output>

    <time>
        <begin value="0.0"/>
        <end value="3600.0"/>
    </time>

    <report>
        <no-warnings value="true"/>
        <ignore-errors value="true"/>
        <no-step-log value="true"/>
    </report>

</duarouterConfiguration>
-->

<routes xmlns:xsi="http://www.w3.org/2001/XMLSchema-instance" xsi:noNamespaceSchemaLocation="http://sumo.dlr.de/xsd/routes_file.xsd">
    <vType id="car_m" length="5.00" maxSpeed="13.90" probability="0.98" vClass="passenger" guiShape="passenger" color="blue" accel="2.6" decel="4.5"/>
    <vehicle id="0" type="car_m" depart="0.00">
        <route edges="B2B1 B1B0 B0A0 A0A1"/>
    </vehicle>
    <vehicle id="1" type="car_m" depart="1.00">
        <route edges="A2B2 B2A2 A2A1"/>
    </vehicle>
    <vehicle id="2" type="car_m" depart="2.00">
        <route edges="C0B0 B0B1 B1B2 B2C2"/>
    </vehicle>
    <vehicle id="3" type="car_m" depart="3.00">
        <route edges="C1C2 C2B2 B2A2 A2A1 A1A0"/>
    </vehicle>
    <vehicle id="4" type="car_m" depart="4.00">
        <route edges="B1A1 A1B1 B1B0 B0A0 A0A1"/>
    </vehicle>
    <vehicle id="5" type="car_m" depart="5.00">
        <route edges="A2A1 A1B1 B1B2"/>
    </vehicle>
    <vehicle id="6" type="car_m" depart="6.00">
        <route edges="A0A1 A1B1"/>
    </vehicle>
    <vehicle id="7" type="car_m" depart="7.00">
        <route edges="B2B1 B1C1"/>
    </vehicle>
    <vehicle id="8" type="car_m" depart="8.00">
        <route edges="A2A1 A1B1 B1B2 B2A2"/>
    </vehicle>
    <vehicle id="9" type="car_m" depart="9.00">
        <route edges="C1B1 B1B0 B0A0 A0A1"/>
    </vehicle>
    <vehicle id="10" type="car_m" depart="10.00">
        <route edges="C1B1 B1B2 B2C2"/>
    </vehicle>
    <vehicle id="11" type="car_m" depart="11.00">
        <route edges="B0B1 B1A1 A1A2"/>
    </vehicle>
    <vehicle id="12" type="car_m" depart="12.00">
        <route edges="C2B2 B2B1 B1B0 B0B1"/>
    </vehicle>
    <vehicle id="13" type="car_m" depart="13.00">
        <route edges="A1A0"/>
    </vehicle>
    <vehicle id="14" type="car_m" depart="14.00">
        <route edges="C1C0 C0B0 B0B1 B1B2 B2A2"/>
    </vehicle>
    <vehicle id="15" type="car_m" depart="15.00">
        <route edges="C1B1 B1C1 C1C0 C0B0"/>
    </vehicle>
    <vehicle id="16" type="car_m" depart="16.00">
        <route edges="B1B2 B2C2 C2C1"/>
    </vehicle>
    <vehicle id="17" type="car_m" depart="17.00">
        <route edges="B0C0 C0C1 C1B1 B1C1"/>
    </vehicle>
    <vehicle id="18" type="car_m" depart="18.00">
        <route edges="C1B1 B1B2 B2A2"/>
    </vehicle>
    <vehicle id="19" type="car_m" depart="19.00">
        <route edges="C1C0 C0B0 B0B1 B1C1"/>
    </vehicle>
    <vehicle id="20" type="car_m" depart="20.00">
        <route edges="B2C2 C2C1 C1B1 B1A1 A1A0 A0B0"/>
    </vehicle>
    <vehicle id="21" type="car_m" depart="21.00">
        <route edges="A2A1 A1A2 A2B2"/>
    </vehicle>
    <vehicle id="22" type="car_m" depart="22.00">
        <route edges="A0B0 B0B1 B1B2 B2A2 A2A1"/>
    </vehicle>
    <vehicle id="23" type="car_m" depart="23.00">
        <route edges="A1A0 A0B0 B0B1 B1A1 A1A2 A2B2"/>
    </vehicle>
    <vehicle id="24" type="car_m" depart="24.00">
        <route edges="B2B1 B1B0 B0B1"/>
    </vehicle>
    <vehicle id="25" type="car_m" depart="25.00">
        <route edges="B0B1 B1B2 B2A2 A2A1"/>
    </vehicle>
    <vehicle id="26" type="car_m" depart="26.00">
        <route edges="A2B2 B2B1 B1C1 C1C2 C2B2"/>
    </vehicle>
    <vehicle id="27" type="car_m" depart="27.00">
        <route edges="B2B1 B1B2 B2A2"/>
    </vehicle>
    <vehicle id="28" type="car_m" depart="28.00">
        <route edges="A1B1 B1C1 C1C0 C0B0"/>
    </vehicle>
    <vehicle id="29" type="car_m" depart="29.00">
        <route edges="A1A2 A2B2 B2B1 B1B0 B0C0"/>
    </vehicle>
    <vehicle id="30" type="car_m" depart="30.00">
        <route edges="C2C1 C1B1 B1B2 B2B1"/>
    </vehicle>
    <vehicle id="31" type="car_m" depart="31.00">
        <route edges="B1C1 C1B1 B1B2 B2C2"/>
    </vehicle>
    <vehicle id="32" type="car_m" depart="32.00">
        <route edges="C1C0 C0B0 B0C0 C0C1"/>
    </vehicle>
    <vehicle id="33" type="car_m" depart="33.00">
        <route edges="A2A1 A1B1 B1B0 B0A0 A0A1"/>
    </vehicle>
    <vehicle id="34" type="car_m" depart="34.00">
        <route edges="B0A0 A0A1 A1A2 A2B2"/>
    </vehicle>
    <vehicle id="35" type="car_m" depart="35.00">
        <route edges="A2A1 A1B1 B1C1 C1C2 C2B2"/>
    </vehicle>
    <vehicle id="36" type="car_m" depart="36.00">
        <route edges="C1C2 C2B2 B2B1 B1B0 B0A0"/>
    </vehicle>
    <vehicle id="37" type="car_m" depart="37.00">
        <route edges="B2B1 B1B0 B0C0"/>
    </vehicle>
    <vehicle id="38" type="car_m" depart="38.00">
        <route edges="C1C2 C2B2 B2B1 B1B0"/>
    </vehicle>
    <vehicle id="39" type="car_m" depart="39.00">
        <route edges="A2B2 B2A2 A2A1"/>
    </vehicle>
    <vehicle id="40" type="car_m" depart="40.00">
        <route edges="B1C1 C1B1 B1A1 A1A2 A2B2"/>
    </vehicle>
    <vehicle id="41" type="car_m" depart="41.00">
        <route edges="B2A2 A2A1 A1B1 B1C1 C1C2"/>
    </vehicle>
    <vehicle id="42" type="car_m" depart="42.00">
        <route edges="B0C0 C0C1 C1C2 C2B2 B2A2 A2A1"/>
    </vehicle>
    <vehicle id="43" type="car_m" depart="43.00">
        <route edges="C2C1 C1B1 B1B2"/>
    </vehicle>
    <vehicle id="44" type="car_m" depart="44.00">
        <route edges="A1A0 A0B0"/>
    </vehicle>
    <vehicle id="45" type="car_m" depart="45.00">
        <route edges="A1A0 A0B0 B0B1 B1B2 B2B1"/>
    </vehicle>
    <vehicle id="46" type="car_m" depart="46.00">
        <route edges="C1B1 B1A1"/>
    </vehicle>
    <vehicle id="47" type="car_m" depart="47.00">
        <route edges="A0B0 B0C0"/>
    </vehicle>
    <vehicle id="48" type="car_m" depart="48.00">
        <route edges="C2C1 C1B1 B1B2"/>
    </vehicle>
    <vehicle id="49" type="car_m" depart="49.00">
        <route edges="C2C1 C1C0"/>
    </vehicle>
    <vehicle id="50" type="car_m" depart="50.00">
        <route edges="A0A1 A1B1 B1C1 C1C0 C0B0"/>
    </vehicle>
    <vehicle id="51" type="car_m" depart="51.00">
        <route edges="B2C2 C2C1 C1B1 B1B2"/>
    </vehicle>
    <vehicle id="52" type="car_m" depart="52.00">
        <route edges="A2B2 B2B1"/>
    </vehicle>
    <vehicle id="53" type="car_m" depart="53.00">
        <route edges="A1A0 A0B0 B0B1 B1A1"/>
    </vehicle>
    <vehicle id="54" type="car_m" depart="54.00">
        <route edges="B1A1 A1B1 B1C1 C1C2 C2B2"/>
    </vehicle>
    <vehicle id="55" type="car_m" depart="55.00">
        <route edges="C1C2 C2B2 B2B1 B1A1 A1A2 A2B2"/>
    </vehicle>
    <vehicle id="56" type="car_m" depart="56.00">
        <route edges="B1B2 B2A2 A2A1 A1B1"/>
    </vehicle>
    <vehicle id="57" type="car_m" depart="57.00">
        <route edges="C1C2 C2B2 B2B1 B1C1 C1C0"/>
    </vehicle>
    <vehicle id="58" type="car_m" depart="58.00">
        <route edges="B0A0 A0A1 A1A2 A2B2 B2B1"/>
    </vehicle>
    <vehicle id="59" type="car_m" depart="59.00">
        <route edges="B2A2 A2A1 A1A2"/>
    </vehicle>
    <vehicle id="60" type="car_m" depart="60.00">
        <route edges="C0C1 C1B1 B1B2"/>
    </vehicle>
    <vehicle id="61" type="car_m" depart="61.00">
        <route edges="C0C1 C1B1 B1B2"/>
    </vehicle>
    <vehicle id="62" type="car_m" depart="62.00">
        <route edges="A0A1 A1B1 B1B0 B0A0"/>
    </vehicle>
    <vehicle id="63" type="car_m" depart="63.00">
        <route edges="A0A1 A1B1 B1C1 C1C2 C2B2"/>
    </vehicle>
    <vehicle id="64" type="car_m" depart="64.00">
        <route edges="C1C2 C2B2 B2C2 C2C1 C1B1"/>
    </vehicle>
    <vehicle id="65" type="car_m" depart="65.00">
        <route edges="B0A0 A0A1 A1A0 A0B0"/>
    </vehicle>
    <vehicle id="66" type="car_m" depart="66.00">
        <route edges="C1C2 C2B2"/>
    </vehicle>
    <vehicle id="67" type="car_m" depart="67.00">
        <route edges="A1A0 A0B0 B0B1 B1B0"/>
    </vehicle>
    <vehicle id="68" type="car_m" depart="68.00">
        <route edges="A0B0 B0C0 C0C1"/>
    </vehicle>
    <vType id="emergency_m" length="5.00" maxSpeed="22.20" probability="0.02" vClass="emergency" guiShape="emergency" color="red" accel="3.0" decel="6.0"/>
    <vehicle id="69" type="emergency_m" depart="69.00">
        <route edges="C0C1 C1B1 B1A1 A1A2"/>
    </vehicle>
    <vehicle id="70" type="car_m" depart="70.00">
        <route edges="B1B0 B0B1 B1C1"/>
    </vehicle>
    <vehicle id="71" type="car_m" depart="71.00">
        <route edges="A2B2 B2C2 C2C1 C1C0"/>
    </vehicle>
    <vehicle id="72" type="car_m" depart="72.00">
        <route edges="B1A1 A1A2 A2B2 B2A2 A2A1"/>
    </vehicle>
    <vehicle id="73" type="car_m" depart="73.00">
        <route edges="B1B2 B2C2 C2C1 C1C0 C0B0"/>
    </vehicle>
    <vehicle id="74" type="car_m" depart="74.00">
        <route edges="A1B1 B1B0 B0A0"/>
    </vehicle>
    <vehicle id="75" type="car_m" depart="75.00">
        <route edges="C2C1 C1B1 B1B2 B2B1"/>
    </vehicle>
    <vehicle id="76" type="car_m" depart="76.00">
        <route edges="B1A1 A1B1 B1B2"/>
    </vehicle>
    <vehicle id="77" type="car_m" depart="77.00">
        <route edges="A1A0 A0B0 B0B1 B1B2 B2A2 A2A1"/>
    </vehicle>
    <vehicle id="78" type="car_m" depart="78.00">
        <route edges="B0B1 B1B2 B2A2"/>
    </vehicle>
    <vehicle id="79" type="car_m" depart="79.00">
        <route edges="A2A1"/>
    </vehicle>
    <vehicle id="80" type="car_m" depart="80.00">
        <route edges="A0B0 B0B1 B1B2 B2B1"/>
    </vehicle>
    <vehicle id="81" type="car_m" depart="81.00">
        <route edges="A2A1 A1B1 B1C1 C1C2"/>
    </vehicle>
    <vehicle id="82" type="car_m" depart="82.00">
        <route edges="C1C0 C0B0 B0B1 B1A1 A1A0 A0B0"/>
    </vehicle>
    <vehicle id="83" type="car_m" depart="83.00">
        <route edges="A2A1 A1B1 B1B2 B2C2"/>
    </vehicle>
    <vehicle id="84" type="car_m" depart="84.00">
        <route edges="A2A1 A1A2"/>
    </vehicle>
    <vehicle id="85" type="car_m" depart="85.00">
        <route edges="C2B2 B2B1 B1C1"/>
    </vehicle>
    <vehicle id="86" type="car_m" depart="86.00">
        <route edges="B1B0 B0C0 C0C1"/>
    </vehicle>
    <vehicle id="87" type="car_m" depart="87.00">
        <route edges="C1B1 B1A1 A1B1"/>
    </vehicle>
    <vehicle id="88" type="car_m" depart="88.00">
        <route edges="A1A0 A0B0 B0B1 B1A1"/>
    </vehicle>
    <vehicle id="89" type="car_m" depart="89.00">
        <route edges="B1A1 A1B1 B1B0"/>
    </vehicle>
    <vehicle id="90" type="car_m" depart="90.00">
        <route edges="C0B0 B0B1 B1B2 B2C2"/>
    </vehicle>
    <vehicle id="91" type="car_m" depart="91.00">
        <route edges="C2C1 C1B1 B1A1 A1A0"/>
    </vehicle>
    <vehicle id="92" type="car_m" depart="92.00">
        <route edges="B0C0 C0C1 C1C0 C0B0 B0B1"/>
    </vehicle>
    <vehicle id="93" type="car_m" depart="93.00">
        <route edges="C1C0 C0B0 B0B1 B1B2 B2A2 A2A1"/>
    </vehicle>
    <vehicle id="94" type="car_m" depart="94.00">
        <route edges="A1B1 B1A1"/>
    </vehicle>
    <vehicle id="95" type="car_m" depart="95.00">
        <route edges="B1A1 A1A2 A2B2"/>
    </vehicle>
    <vehicle id="96" type="car_m" depart="96.00">
        <route edges="A2A1 A1B1 B1C1 C1C2 C2B2"/>
    </vehicle>
    <vehicle id="97" type="car_m" depart="97.00">
        <route edges="B1A1 A1B1 B1C1 C1C0"/>
    </vehicle>
    <vehicle id="98" type="car_m" depart="98.00">
        <route edges="B1C1 C1B1 B1A1 A1A0 A0B0"/>
    </vehicle>
    <vehicle id="99" type="car_m" depart="99.00">
        <route edges="C2C1 C1C0"/>
    </vehicle>
    <vehicle id="100" type="car_m" depart="100.00">
        <route edges="C2C1 C1C2 C2B2"/>
    </vehicle>
    <vehicle id="101" type="car_m" depart="101.00">
        <route edges="C1C0 C0B0 B0A0 A0A1 A1A2"/>
    </vehicle>
    <vehicle id="102" type="car_m" depart="102.00">
        <route edges="B1B0 B0B1 B1B2 B2A2 A2A1"/>
    </vehicle>
    <vehicle id="103" type="car_m" depart="103.00">
        <route edges="B0C0 C0C1 C1B1 B1A1 A1A0 A0B0"/>
    </vehicle>
    <vehicle id="104" type="car_m" depart="104.00">
        <route edges="B0C0 C0C1 C1B1 B1B2 B2C2 C2C1"/>
    </vehicle>
    <vehicle id="105" type="car_m" depart="105.00">
        <route edges="A2B2 B2B1 B1B0 B0C0 C0C1"/>
    </vehicle>
    <vehicle id="106" type="car_m" depart="106.00">
        <route edges="B1A1"/>
    </vehicle>
    <vehicle id="107" type="car_m" depart="107.00">
        <route edges="C2B2 B2C2 C2C1"/>
    </vehicle>
    <vehicle id="108" type="car_m" depart="108.00">
        <route edges="B1C1 C1C0 C0B0"/>
    </vehicle>
    <vehicle id="109" type="car_m" depart="109.00">
        <route edges="A1A2 A2B2 B2B1 B1B0 B0A0"/>
    </vehicle>
    <vehicle id="110" type="car_m" depart="110.00">
        <route edges="C2C1 C1B1 B1C1"/>
    </vehicle>
    <vehicle id="111" type="car_m" depart="111.00">
        <route edges="B1C1 C1C0 C0B0"/>
    </vehicle>
    <vehicle id="112" type="car_m" depart="112.00">
        <route edges="A0B0 B0B1 B1B2 B2A2"/>
    </vehicle>
    <vehicle id="113" type="car_m" depart="113.00">
        <route edges="B1B2 B2C2 C2C1 C1C0"/>
    </vehicle>
    <vehicle id="114" type="car_m" depart="114.00">
        <route edges="A1A2 A2B2 B2C2 C2C1"/>
    </vehicle>
    <vehicle id="115" type="car_m" depart="115.00">
        <route edges="A0B0 B0A0 A0A1 A1B1"/>
    </vehicle>
    <vehicle id="116" type="car_m" depart="116.00">
        <route edges="B2A2 A2A1 A1B1 B1B2 B2C2"/>
    </vehicle>
    <vehicle id="117" type="car_m" depart="117.00">
        <route edges="A2A1 A1A0"/>
    </vehicle>
    <vehicle id="118" type="car_m" depart="118.00">
        <route edges="C1C2 C2B2 B2A2 A2A1"/>
    </vehicle>
    <vehicle id="119" type="car_m" depart="119.00">
        <route edges="B2A2"/>
    </vehicle>
    <vehicle id="120" type="car_m" depart="120.00">
        <route edges="B1A1 A1A2 A2B2 B2A2"/>
    </vehicle>
    <vehicle id="121" type="car_m" depart="121.00">
        <route edges="B1B2 B2C2 C2C1 C1C2 C2B2"/>
    </vehicle>
    <vehicle id="122" type="car_m" depart="122.00">
        <route edges="A1B1 B1C1 C1C0 C0B0"/>
    </vehicle>
    <vehicle id="123" type="car_m" depart="123.00">
        <route edges="A2A1 A1A0 A0B0 B0C0"/>
    </vehicle>
    <vehicle id="124" type="car_m" depart="124.00">
        <route edges="B2C2 C2C1 C1C0 C0B0 B0A0"/>
    </vehicle>
    <vehicle id="125" type="car_m" depart="125.00">
        <route edges="B0A0 A0A1 A1B1 B1B0 B0C0 C0C1"/>
    </vehicle>
    <vehicle id="126" type="car_m" depart="126.00">
        <route edges="A0B0 B0B1 B1A1"/>
    </vehicle>
    <vehicle id="127" type="car_m" depart="127.00">
        <route edges="C2C1"/>
    </vehicle>
    <vehicle id="128" type="car_m" depart="128.00">
        <route edges="A0B0 B0B1 B1B2 B2A2 A2A1"/>
    </vehicle>
    <vehicle id="129" type="car_m" depart="129.00">
        <route edges="A2B2 B2B1 B1C1 C1C2 C2B2"/>
    </vehicle>
    <vehicle id="130" type="car_m" depart="130.00">
        <route edges="C1C2"/>
    </vehicle>
    <vehicle id="131" type="car_m" depart="131.00">
        <route edges="B0B1 B1A1 A1A2"/>
    </vehicle>
    <vehicle id="132" type="car_m" depart="132.00">
        <route edges="C1C0 C0B0 B0B1 B1B2 B2C2"/>
    </vehicle>
    <vehicle id="133" type="car_m" depart="133.00">
        <route edges="B2A2 A2A1 A1B1 B1B2 B2C2 C2C1"/>
    </vehicle>
    <vehicle id="134" type="car_m" depart="134.00">
        <route edges="B2B1 B1B0 B0A0 A0A1"/>
    </vehicle>
    <vehicle id="135" type="car_m" depart="135.00">
        <route edges="C1B1 B1B0 B0A0"/>
    </vehicle>
    <vehicle id="136" type="car_m" depart="136.00">
        <route edges="B2B1 B1C1 C1C2 C2B2"/>
    </vehicle>
    <vehicle id="137" type="car_m" depart="137.00">
        <route edges="A1A2 A2B2 B2B1 B1A1 A1A0"/>
    </vehicle>
    <vehicle id="138" type="car_m" depart="138.00">
        <route edges="A1A0 A0B0 B0B1 B1C1"/>
    </vehicle>
    <vehicle id="139" type="car_m" depart="139.00">
        <route edges="A2B2 B2A2"/>
    </vehicle>
    <vehicle id="140" type="car_m" depart="140.00">
        <route edges="C0B0 B0A0 A0A1 A1B1"/>
    </vehicle>
    <vehicle id="141" type="car_m" depart="141.00">
        <route edges="B2B1 B1A1 A1A2 A2B2"/>
    </vehicle>
    <vehicle id="142" type="car_m" depart="142.00">
        <route edges="B1B0 B0C0 C0C1 C1C2"/>
    </vehicle>
    <vehicle id="143" type="car_m" depart="143.00">
        <route edges="C1C0 C0B0 B0B1 B1A1 A1A0"/>
    </vehicle>
    <vehicle id="144" type="emergency_m" depart="144.00">
        <route edges="B1A1 A1A2 A2B2"/>
    </vehicle>
    <vehicle id="145" type="car_m" depart="145.00">
        <route edges="A0A1 A1B1 B1B0 B0C0 C0C1"/>
    </vehicle>
    <vehicle id="146" type="car_m" depart="146.00">
        <route edges="B2B1 B1A1 A1A2 A2B2"/>
    </vehicle>
    <vehicle id="147" type="car_m" depart="147.00">
        <route edges="C0B0 B0B1 B1C1"/>
    </vehicle>
    <vehicle id="148" type="car_m" depart="148.00">
        <route edges="B1A1 A1B1 B1B0 B0A0 A0A1"/>
    </vehicle>
    <vehicle id="149" type="car_m" depart="149.00">
        <route edges="A0B0 B0C0 C0C1 C1C2"/>
    </vehicle>
    <vehicle id="150" type="car_m" depart="150.00">
        <route edges="C1C2 C2B2 B2B1 B1C1"/>
    </vehicle>
    <vehicle id="151" type="car_m" depart="151.00">
        <route edges="C1C0 C0B0 B0B1 B1C1"/>
    </vehicle>
    <vehicle id="152" type="car_m" depart="152.00">
        <route edges="A1A2"/>
    </vehicle>
    <vehicle id="153" type="car_m" depart="153.00">
        <route edges="B0A0 A0A1 A1B1 B1C1 C1C2"/>
    </vehicle>
    <vehicle id="154" type="car_m" depart="154.00">
        <route edges="C1B1 B1C1 C1C0"/>
    </vehicle>
    <vehicle id="155" type="car_m" depart="155.00">
        <route edges="C1C2 C2B2 B2A2 A2A1"/>
    </vehicle>
    <vehicle id="156" type="car_m" depart="156.00">
        <route edges="A2A1 A1A0"/>
    </vehicle>
    <vehicle id="157" type="car_m" depart="157.00">
        <route edges="C0C1 C1C2"/>
    </vehicle>
    <vehicle id="158" type="car_m" depart="158.00">
        <route edges="B0C0 C0C1 C1C2 C2B2 B2A2"/>
    </vehicle>
    <vehicle id="159" type="car_m" depart="159.00">
        <route edges="A1A2 A2B2 B2B1 B1C1 C1C2 C2B2"/>
    </vehicle>
    <vehicle id="160" type="car_m" depart="160.00">
        <route edges="C1C0 C0B0 B0B1 B1B2 B2C2 C2C1"/>
    </vehicle>
    <vehicle id="161" type="car_m" depart="161.00">
        <route edges="C1B1 B1C1 C1C2"/>
    </vehicle>
    <vehicle id="162" type="car_m" depart="162.00">
        <route edges="A0A1 A1B1 B1C1 C1C0 C0B0"/>
    </vehicle>
    <vehicle id="163" type="car_m" depart="163.00">
        <route edges="B0A0 A0A1 A1B1 B1C1 C1C2 C2B2"/>
    </vehicle>
    <vehicle id="164" type="emergency_m" depart="164.00">
        <route edges="C1B1 B1C1 C1C0"/>
    </vehicle>
    <vehicle id="165" type="car_m" depart="165.00">
        <route edges="C1B1 B1A1 A1A2 A2B2"/>
    </vehicle>
    <vehicle id="166" type="car_m" depart="166.00">
        <route edges="C0C1 C1B1 B1A1 A1A0"/>
    </vehicle>
    <vehicle id="167" type="car_m" depart="167.00">
        <route edges="C1C0"/>
    </vehicle>
    <vehicle id="168" type="car_m" depart="168.00">
        <route edges="A2A1 A1B1 B1C1 C1B1"/>
    </vehicle>
    <vehicle id="169" type="car_m" depart="169.00">
        <route edges="B1B0 B0A0"/>
    </vehicle>
    <vehicle id="170" type="car_m" depart="170.00">
        <route edges="C1B1 B1B2 B2A2 A2A1"/>
    </vehicle>
    <vehicle id="171" type="car_m" depart="171.00">
        <route edges="A0A1 A1B1"/>
    </vehicle>
    <vehicle id="172" type="car_m" depart="172.00">
        <route edges="B0A0 A0A1 A1B1 B1C1 C1C0"/>
    </vehicle>
    <vehicle id="173" type="car_m" depart="173.00">
        <route edges="C2C1 C1B1 B1A1 A1A2 A2B2"/>
    </vehicle>
    <vehicle id="174" type="car_m" depart="174.00">
        <route edges="B2B1 B1B0 B0C0"/>
    </vehicle>
    <vehicle id="175" type="car_m" depart="175.00">
        <route edges="C2C1 C1B1 B1B2"/>
    </vehicle>
    <vehicle id="176" type="car_m" depart="176.00">
        <route edges="C2B2 B2A2 A2A1 A1A0"/>
    </vehicle>
    <vehicle id="177" type="car_m" depart="177.00">
        <route edges="C2C1 C1B1 B1A1 A1B1"/>
    </vehicle>
    <vehicle id="178" type="car_m" depart="178.00">
        <route edges="C2C1 C1B1 B1A1 A1A2 A2B2"/>
    </vehicle>
    <vehicle id="179" type="car_m" depart="179.00">
        <route edges="A1A0 A0B0 B0B1 B1A1"/>
    </vehicle>
    <vehicle id="180" type="car_m" depart="180.00">
        <route edges="C0B0 B0A0"/>
    </vehicle>
    <vehicle id="181" type="car_m" depart="181.00">
        <route edges="B2A2 A2A1 A1B1 B1B2"/>
    </vehicle>
    <vehicle id="182" type="car_m" depart="182.00">
        <route edges="B0C0 C0C1 C1B1 B1C1"/>
    </vehicle>
    <vehicle id="183" type="car_m" depart="183.00">
        <route edges="A2B2 B2C2 C2C1 C1C0 C0B0"/>
    </vehicle>
    <vehicle id="184" type="car_m" depart="184.00">
        <route edges="A0A1 A1B1 B1C1 C1C2 C2B2"/>
    </vehicle>
    <vehicle id="185" type="car_m" depart="185.00">
        <route edges="B1B2 B2C2 C2C1 C1C0 C0B0"/>
    </vehicle>
    <vehicle id="186" type="car_m" depart="186.00">
        <route edges="C0B0 B0B1 B1B2 B2C2"/>
    </vehicle>
    <vehicle id="187" type="car_m" depart="187.00">
        <route edges="B0B1 B1A1 A1A0 A0B0"/>
    </vehicle>
    <vehicle id="188" type="car_m" depart="188.00">
        <route edges="B2B1 B1B0 B0A0"/>
    </vehicle>
    <vehicle id="189" type="car_m" depart="189.00">
        <route edges="B0A0 A0A1 A1B1 B1C1 C1C0"/>
    </vehicle>
    <vehicle id="190" type="car_m" depart="190.00">
        <route edges="C0B0 B0A0"/>
    </vehicle>
    <vehicle id="191" type="car_m" depart="191.00">
        <route edges="B0A0 A0A1 A1B1 B1B0 B0C0"/>
    </vehicle>
    <vehicle id="192" type="car_m" depart="192.00">
        <route edges="B0C0 C0C1 C1B1 B1B0 B0A0"/>
    </vehicle>
    <vehicle id="193" type="car_m" depart="193.00">
        <route edges="A1A2 A2B2 B2B1 B1A1"/>
    </vehicle>
    <vehicle id="194" type="car_m" depart="194.00">
        <route edges="C2B2 B2C2"/>
    </vehicle>
    <vehicle id="195" type="car_m" depart="195.00">
        <route edges="C1C2 C2B2 B2A2"/>
    </vehicle>
    <vehicle id="196" type="car_m" depart="196.00">
        <route edges="B0A0 A0A1 A1B1 B1C1"/>
    </vehicle>
    <vehicle id="197" type="car_m" depart="197.00">
        <route edges="A0A1 A1A2 A2B2"/>
    </vehicle>
    <vehicle id="198" type="car_m" depart="198.00">
        <route edges="B1A1 A1B1 B1C1"/>
    </vehicle>
    <vehicle id="199" type="car_m" depart="199.00">
        <route edges="B2B1 B1B0"/>
    </vehicle>
    <vehicle id="200" type="car_m" depart="200.00">
        <route edges="B1A1 A1A2 A2B2 B2A2 A2A1"/>
    </vehicle>
    <vehicle id="201" type="car_m" depart="201.00">
        <route edges="B1B0 B0C0 C0C1 C1C2"/>
    </vehicle>
    <vehicle id="202" type="car_m" depart="202.00">
        <route edges="C1B1 B1A1 A1B1"/>
    </vehicle>
    <vehicle id="203" type="car_m" depart="203.00">
        <route edges="A1A0 A0B0 B0B1 B1B2"/>
    </vehicle>
    <vehicle id="204" type="car_m" depart="204.00">
        <route edges="B2B1 B1B0 B0B1"/>
    </vehicle>
    <vehicle id="205" type="car_m" depart="205.00">
        <route edges="C1B1 B1B0 B0C0 C0C1"/>
    </vehicle>
    <vehicle id="206" type="car_m" depart="206.00">
        <route edges="B2C2 C2C1 C1B1 B1B2 B2A2 A2A1"/>
    </vehicle>
    <vehicle id="207" type="car_m" depart="207.00">
        <route edges="A1B1 B1B0 B0A0 A0A1"/>
    </vehicle>
    <vehicle id="208" type="car_m" depart="208.00">
        <route edges="A2A1 A1B1 B1B0"/>
    </vehicle>
    <vehicle id="209" type="car_m" depart="209.00">
        <route edges="C1C0 C0B0 B0B1 B1A1 A1A0 A0B0"/>
    </vehicle>
    <vehicle id="210" type="car_m" depart="210.00">
        <route edges="B0C0 C0C1 C1C2 C2B2 B2B1"/>
    </vehicle>
    <vehicle id="211" type="car_m" depart="211.00">
        <route edges="A1B1 B1B2 B2C2"/>
    </vehicle>
    <vehicle id="212" type="car_m" depart="212.00">
        <route edges="B1B0 B0B1 B1B2 B2A2 A2A1"/>
    </vehicle>
    <vehicle id="213" type="car_m" depart="213.00">
        <route edges="B2B1 B1B0 B0A0 A0A1"/>
    </vehicle>
    <vehicle id="214" type="car_m" depart="214.00">
        <route edges="C0C1"/>
    </vehicle>
    <vehicle id="215" type="car_m" depart="215.00">
        <route edges="A1A0 A0B0 B0B1 B1A1"/>
    </vehicle>
    <vehicle id="216" type="car_m" depart="216.00">
        <route edges="A1B1 B1C1 C1C2 C2B2"/>
    </vehicle>
    <vehicle id="217" type="emergency_m" depart="217.00">
        <route edges="B1B2 B2A2 A2A1 A1A0 A0B0"/>
    </vehicle>
    <vehicle id="218" type="car_m" depart="218.00">
        <route edges="A2A1 A1B1 B1C1 C1C0"/>
    </vehicle>
    <vehicle id="219" type="car_m" depart="219.00">
        <route edges="B1A1 A1B1 B1C1 C1B1"/>
    </vehicle>
    <vehicle id="220" type="car_m" depart="220.00">
        <route edges="B2C2 C2C1"/>
    </vehicle>
    <vehicle id="221" type="car_m" depart="221.00">
        <route edges="B2A2 A2A1 A1B1 B1C1 C1C2 C2B2"/>
    </vehicle>
    <vehicle id="222" type="car_m" depart="222.00">
        <route edges="C1C2 C2B2 B2A2"/>
    </vehicle>
    <vehicle id="223" type="car_m" depart="223.00">
        <route edges="C0B0 B0B1 B1B2"/>
    </vehicle>
    <vehicle id="224" type="car_m" depart="224.00">
        <route edges="C1B1 B1C1"/>
    </vehicle>
    <vehicle id="225" type="car_m" depart="225.00">
        <route edges="C1C2 C2B2 B2B1 B1C1 C1C0 C0B0"/>
    </vehicle>
    <vehicle id="226" type="car_m" depart="226.00">
        <route edges="B1B0 B0A0 A0A1 A1A2 A2B2"/>
    </vehicle>
    <vehicle id="227" type="car_m" depart="227.00">
        <route edges="A2A1 A1A2 A2B2 B2B1"/>
    </vehicle>
    <vehicle id="228" type="car_m" depart="228.00">
        <route edges="C0C1 C1B1 B1B2"/>
    </vehicle>
    <vehicle id="229" type="car_m" depart="229.00">
        <route edges="B2B1 B1A1 A1A2 A2B2"/>
    </vehicle>
    <vehicle id="230" type="car_m" depart="230.00">
        <route edges="A0B0 B0B1 B1A1 A1A2 A2B2"/>
    </vehicle>
    <vehicle id="231" type="car_m" depart="231.00">
        <route edges="A2B2 B2B1 B1B0 B0A0"/>
    </vehicle>
    <vehicle id="232" type="car_m" depart="232.00">
        <route edges="B1B2 B2B1 B1A1 A1A2"/>
    </vehicle>
    <vehicle id="233" type="car_m" depart="233.00">
        <route edges="A2A1 A1B1 B1B2 B2C2"/>
    </vehicle>
    <vehicle id="234" type="car_m" depart="234.00">
        <route edges="B2C2 C2C1 C1B1 B1A1 A1A0 A0B0"/>
    </vehicle>
    <vehicle id="235" type="car_m" depart="235.00">
        <route edges="B0C0 C0C1 C1B1 B1C1"/>
    </vehicle>
    <vehicle id="236" type="car_m" depart="236.00">
        <route edges="B0C0 C0C1 C1B1 B1A1 A1B1"/>
    </vehicle>
    <vehicle id="237" type="car_m" depart="237.00">
        <route edges="B1A1 A1B1 B1C1 C1C2"/>
    </vehicle>
    <vehicle id="238" type="car_m" depart="238.00">
        <route edges="B2A2 A2A1 A1B1 B1B2 B2C2"/>
    </vehicle>
    <vehicle id="239" type="car_m" depart="239.00">
        <route edges="C1C0 C0B0 B0C0 C0C1"/>
    </vehicle>
    <vehicle id="240" type="car_m" depart="240.00">
        <route edges="B0C0 C0C1 C1B1 B1B0 B0A0 A0A1"/>
    </vehicle>
    <vehicle id="241" type="car_m" depart="241.00">
        <route edges="B0B1 B1B0 B0C0 C0C1"/>
    </vehicle>
    <vehicle id="242" type="car_m" depart="242.00">
        <route edges="C1C0 C0B0 B0B1 B1C1 C1C2 C2B2"/>
    </vehicle>
    <vehicle id="243" type="car_m" depart="243.00">
        <route edges="B1A1 A1B1 B1C1 C1C0 C0B0"/>
    </vehicle>
    <vehicle id="244" type="car_m" depart="244.00">
        <route edges="B1C1 C1C2 C2B2 B2A2"/>
    </vehicle>
    <vehicle id="245" type="car_m" depart="245.00">
        <route edges="A2A1"/>
    </vehicle>
    <vehicle id="246" type="car_m" depart="246.00">
        <route edges="B1A1 A1B1 B1B0 B0A0 A0A1"/>
    </vehicle>
    <vehicle id="247" type="car_m" depart="247.00">
        <route edges="B0B1 B1B2 B2C2"/>
    </vehicle>
    <vehicle id="248" type="car_m" depart="248.00">
        <route edges="B0C0 C0C1 C1B1 B1A1 A1A2"/>
    </vehicle>
    <vehicle id="249" type="car_m" depart="249.00">
        <route edges="B1B0 B0A0 A0A1 A1A2"/>
    </vehicle>
    <vehicle id="250" type="car_m" depart="250.00">
        <route edges="B2A2 A2A1 A1B1 B1B0 B0A0 A0A1"/>
    </vehicle>
    <vehicle id="251" type="car_m" depart="251.00">
        <route edges="B0C0 C0C1 C1B1 B1C1"/>
    </vehicle>
    <vehicle id="252" type="car_m" depart="252.00">
        <route edges="A0A1 A1A2 A2B2 B2B1"/>
    </vehicle>
    <vehicle id="253" type="car_m" depart="253.00">
        <route edges="A1A2 A2B2 B2B1 B1B0"/>
    </vehicle>
    <vehicle id="254" type="car_m" depart="254.00">
        <route edges="A0B0 B0C0"/>
    </vehicle>
    <vehicle id="255" type="car_m" depart="255.00">
        <route edges="A2A1 A1B1 B1B0 B0A0"/>
    </vehicle>