<configuration>
  <input>
    <net-file value="grid3x3.net.xml"/>
    <route-files value="grid3x3.rou.xml"/>
  </input>

  <time>
    <begin value="0"/>
    <end value="3600"/>
    <step-length value="1"/>
  </time>

  <report>
    <verbose value="true"/>
    <no-step-log value="true"/>
  </report>
</configuration>

