<routes>
    <vType id="standard_car" accel="0.8" decel="4.5" length="5.0" />

    <route id="route_0" edges="t2c c2b" />
    <route id="route_1" edges="t2c c2l" />
    <route id="route_2" edges="t2c c2r" />
    <route id="route_3" edges="b2c c2t" />
    <route id="route_4" edges="b2c c2l" />
    <route id="route_5" edges="b2c c2r" />
    <route id="route_6" edges="l2c c2r" />
    <route id="route_7" edges="l2c c2t" />
    <route id="route_8" edges="l2c c2b" />
    <route id="route_9" edges="r2c c2l" />
    <route id="route_10" edges="r2c c2t" />
    <route id="route_11" edges="r2c c2b" />

    <vehicle id="veh_0" type="standard_car" route="route_8" depart="2.01" />
    <vehicle id="veh_1" type="standard_car" route="route_9" depart="2.32" />
    <vehicle id="veh_2" type="standard_car" route="route_5" depart="2.85" />
    <vehicle id="veh_3" type="standard_car" route="route_2" depart="16.11" />
    <vehicle id="veh_4" type="standard_car" route="route_4" depart="18.03" />
    <vehicle id="veh_5" type="standard_car" route="route_6" depart="19.89" />
    <vehicle id="veh_6" type="standard_car" route="route_1" depart="21.12" />
    <vehicle id="veh_7" type="standard_car" route="route_11" depart="28.41" />
    <vehicle id="veh_8" type="standard_car" route="route_9" depart="28.57" />
    <vehicle id="veh_9" type="standard_car" route="route_0" depart="31.02" />
    <vehicle id="veh_10" type="standard_car" route="route_4" depart="31.68" />
    <vehicle id="veh_11" type="standard_car" route="route_11" depart="37.25" />
    <vehicle id="veh_12" type="standard_car" route="route_6" depart="40.86" />
    <vehicle id="veh_13" type="standard_car" route="route_2" depart="41.12" />
    <vehicle id="veh_14" type="standard_car" route="route_0" depart="44.71" />
    <vehicle id="veh_15" type="standard_car" route="route_10" depart="45.04" />
    <vehicle id="veh_16" type="standard_car" route="route_4" depart="46.36" />
    <vehicle id="veh_17" type="standard_car" route="route_6" depart="46.78" />
    <vehicle id="veh_18" type="standard_car" route="route_9" depart="46.91" />
    <vehicle id="veh_19" type="standard_car" route="route_7" depart="47.76" />
    <vehicle id="veh_20" type="standard_car" route="route_7" depart="48.15" />
    <vehicle id="veh_21" type="standard_car" route="route_0" depart="48.72" />
    <vehicle id="veh_22" type="standard_car" route="route_8" depart="49.32" />
    <vehicle id="veh_23" type="standard_car" route="route_4" depart="50.39" />
    <vehicle id="veh_24" type="standard_car" route="route_2" depart="51.39" />
    <vehicle id="veh_25" type="standard_car" route="route_10" depart="51.75" />
    <vehicle id="veh_26" type="standard_car" route="route_10" depart="54.84" />
    <vehicle id="veh_27" type="standard_car" route="route_7" depart="57.23" />
    <vehicle id="veh_28" type="standard_car" route="route_1" depart="58.96" />
    <vehicle id="veh_29" type="standard_car" route="route_9" depart="59.33" />
    <vehicle id="veh_30" type="standard_car" route="route_2" depart="62.35" />
    <vehicle id="veh_31" type="standard_car" route="route_10" depart="63.93" />
    <vehicle id="veh_32" type="standard_car" route="route_0" depart="66.17" />
    <vehicle id="veh_33" type="standard_car" route="route_5" depart="67.50" />
    <vehicle id="veh_34" type="standard_car" route="route_5" depart="69.36" />
    <vehicle id="veh_35" type="standard_car" route="route_7" depart="70.77" />
    <vehicle id="veh_36" type="standard_car" route="route_4" depart="77.45" />
    <vehicle id="veh_37" type="standard_car" route="route_2" depart="79.64" />
    <vehicle id="veh_38" type="standard_car" route="route_1" depart="84.62" />
    <vehicle id="veh_39" type="standard_car" route="route_2" depart="85.37" />
    <vehicle id="veh_40" type="standard_car" route="route_4" depart="88.59" />
    <vehicle id="veh_41" type="standard_car" route="route_4" depart="91.62" />
    <vehicle id="veh_42" type="standard_car" route="route_5" depart="92.08" />
    <vehicle id="veh_43" type="standard_car" route="route_10" depart="93.96" />
    <vehicle id="veh_44" type="standard_car" route="route_3" depart="95.69" />
    <vehicle id="veh_45" type="standard_car" route="route_0" depart="96.79" />
    <vehicle id="veh_46" type="standard_car" route="route_0" depart="99.07" />
    <vehicle id="veh_47" type="standard_car" route="route_10" depart="101.68" />
    <vehicle id="veh_48" type="standard_car" route="route_8" depart="102.29" />
    <vehicle id="veh_49" type="standard_car" route="route_8" depart="103.32" />
    <vehicle id="veh_50" type="standard_car" route="route_1" depart="105.28" />
    <vehicle id="veh_51" type="standard_car" route="route_11" depart="112.27" />
    <vehicle id="veh_52" type="standard_car" route="route_9" depart="113.05" />
    <vehicle id="veh_53" type="standard_car" route="route_4" depart="113.56" />
    <vehicle id="veh_54" type="standard_car" route="route_0" depart="114.12" />
    <vehicle id="veh_55" type="standard_car" route="route_0" depart="114.64" />
    <vehicle id="veh_56" type="standard_car" route="route_1" depart="120.01" />
    <vehicle id="veh_57" type="standard_car" route="route_5" depart="120.17" />
    <vehicle id="veh_58" type="standard_car" route="route_1" depart="121.72" />
    <vehicle id="veh_59" type="standard_car" route="route_7" depart="125.23" />
    <vehicle id="veh_60" type="standard_car" route="route_1" depart="128.06" />
    <vehicle id="veh_61" type="standard_car" route="route_10" depart="129.85" />
    <vehicle id="veh_62" type="standard_car" route="route_9" depart="132.20" />
    <vehicle id="veh_63" type="standard_car" route="route_11" depart="132.75" />
    <vehicle id="veh_64" type="standard_car" route="route_10" depart="136.26" />
    <vehicle id="veh_65" type="standard_car" route="route_4" depart="136.36" />
    <vehicle id="veh_66" type="standard_car" route="route_5" depart="141.11" />
    <vehicle id="veh_67" type="standard_car" route="route_9" depart="141.38" />
    <vehicle id="veh_68" type="standard_car" route="route_4" depart="141.75" />
    <vehicle id="veh_69" type="standard_car" route="route_4" depart="145.69" />
    <vehicle id="veh_70" type="standard_car" route="route_4" depart="147.85" />
    <vehicle id="veh_71" type="standard_car" route="route_6" depart="149.95" />
    <vehicle id="veh_72" type="standard_car" route="route_2" depart="151.52" />
    <vehicle id="veh_73" type="standard_car" route="route_2" depart="155.65" />
    <vehicle id="veh_74" type="standard_car" route="route_7" depart="157.30" />
    <vehicle id="veh_75" type="standard_car" route="route_4" depart="157.95" />
    <vehicle id="veh_76" type="standard_car" route="route_1" depart="158.70" />
    <vehicle id="veh_77" type="standard_car" route="route_5" depart="158.81" />
    <vehicle id="veh_78" type="standard_car" route="route_9" depart="162.40" />
    <vehicle id="veh_79" type="standard_car" route="route_4" depart="162.40" />
    <vehicle id="veh_80" type="standard_car" route="route_0" depart="167.52" />
    <vehicle id="veh_81" type="standard_car" route="route_1" depart="172.38" />
    <vehicle id="veh_82" type="standard_car" route="route_6" depart="175.97" />
    <vehicle id="veh_83" type="standard_car" route="route_6" depart="176.45" />
    <vehicle id="veh_84" type="standard_car" route="route_7" depart="179.67" />
    <vehicle id="veh_85" type="standard_car" route="route_4" depart="181.25" />
    <vehicle id="veh_86" type="standard_car" route="route_6" depart="182.58" />
    <vehicle id="veh_87" type="standard_car" route="route_0" depart="184.66" />
    <vehicle id="veh_88" type="standard_car" route="route_2" depart="185.49" />
    <vehicle id="veh_89" type="standard_car" route="route_7" depart="186.51" />
    <vehicle id="veh_90" type="standard_car" route="route_9" depart="187.01" />
    <vehicle id="veh_91" type="standard_car" route="route_3" depart="187.19" />
    <vehicle id="veh_92" type="standard_car" route="route_0" depart="188.04" />
    <vehicle id="veh_93" type="standard_car" route="route_10" depart="188.96" />
    <vehicle id="veh_94" type="standard_car" route="route_0" depart="189.97" />
    <vehicle id="veh_95" type="standard_car" route="route_11" depart="191.21" />
    <vehicle id="veh_96" type="standard_car" route="route_11" depart="195.70" />
    <vehicle id="veh_97" type="standard_car" route="route_10" depart="201.64" />
    <vehicle id="veh_98" type="standard_car" route="route_5" depart="205.78" />
    <vehicle id="veh_99" type="standard_car" route="route_5" depart="206.16" />
    <vehicle id="veh_100" type="standard_car" route="route_4" depart="209.58" />
    <vehicle id="veh_101" type="standard_car" route="route_5" depart="212.10" />
    <vehicle id="veh_102" type="standard_car" route="route_10" depart="212.62" />
    <vehicle id="veh_103" type="standard_car" route="route_7" depart="216.14" />
    <vehicle id="veh_104" type="standard_car" route="route_5" depart="217.04" />
    <vehicle id="veh_105" type="standard_car" route="route_4" depart="223.85" />
    <vehicle id="veh_106" type="standard_car" route="route_4" depart="224.96" />
    <vehicle id="veh_107" type="standard_car" route="route_9" depart="229.64" />
    <vehicle id="veh_108" type="standard_car" route="route_9" depart="229.92" />
    <vehicle id="veh_109" type="standard_car" route="route_3" depart="230.66" />
    <vehicle id="veh_110" type="standard_car" route="route_4" depart="233.74" />
    <vehicle id="veh_111" type="standard_car" route="route_11" depart="237.00" />
    <vehicle id="veh_112" type="standard_car" route="route_0" depart="237.38" />
    <vehicle id="veh_113" type="standard_car" route="route_5" depart="239.52" />
    <vehicle id="veh_114" type="standard_car" route="route_5" depart="240.73" />
    <vehicle id="veh_115" type="standard_car" route="route_2" depart="245.68" />
    <vehicle id="veh_116" type="standard_car" route="route_7" depart="246.49" />
    <vehicle id="veh_117" type="standard_car" route="route_1" depart="247.03" />
    <vehicle id="veh_118" type="standard_car" route="route_10" depart="247.09" />
    <vehicle id="veh_119" type="standard_car" route="route_6" depart="248.19" />
    <vehicle id="veh_120" type="standard_car" route="route_11" depart="248.68" />
    <vehicle id="veh_121" type="standard_car" route="route_6" depart="251.66" />
    <vehicle id="veh_122" type="standard_car" route="route_11" depart="251.66" />
    <vehicle id="veh_123" type="standard_car" route="route_7" depart="251.70" />
    <vehicle id="veh_124" type="standard_car" route="route_1" depart="251.71" />
    <vehicle id="veh_125" type="standard_car" route="route_6" depart="251.84" />
    <vehicle id="veh_126" type="standard_car" route="route_8" depart="254.80" />
    <vehicle id="veh_127" type="standard_car" route="route_2" depart="255.82" />
    <vehicle id="veh_128" type="standard_car" route="route_11" depart="256.71" />
    <vehicle id="veh_129" type="standard_car" route="route_1" depart="263.32" />
    <vehicle id="veh_130" type="standard_car" route="route_7" depart="263.76" />
    <vehicle id="veh_131" type="standard_car" route="route_9" depart="267.42" />
    <vehicle id="veh_132" type="standard_car" route="route_5" depart="269.46" />
    <vehicle id="veh_133" type="standard_car" route="route_10" depart="270.43" />
    <vehicle id="veh_134" type="standard_car" route="route_11" depart="272.78" />
    <vehicle id="veh_135" type="standard_car" route="route_1" depart="273.64" />
    <vehicle id="veh_136" type="standard_car" route="route_2" depart="276.31" />
    <vehicle id="veh_137" type="standard_car" route="route_10" depart="276.38" />
    <vehicle id="veh_138" type="standard_car" route="route_9" depart="276.56" />
    <vehicle id="veh_139" type="standard_car" route="route_8" depart="278.08" />
    <vehicle id="veh_140" type="standard_car" route="route_11" depart="281.38" />
    <vehicle id="veh_141" type="standard_car" route="route_10" depart="283.82" />
    <vehicle id="veh_142" type="standard_car" route="route_0" depart="284.26" />
    <vehicle id="veh_143" type="standard_car" route="route_1" depart="285.27" />
    <vehicle id="veh_144" type="standard_car" route="route_8" depart="286.23" />
    <vehicle id="veh_145" type="standard_car" route="route_5" depart="288.08" />
    <vehicle id="veh_146" type="standard_car" route="route_7" depart="291.45" />
    <vehicle id="veh_147" type="standard_car" route="route_3" depart="296.61" />
    <vehicle id="veh_148" type="standard_car" route="route_1" depart="302.36" />
    <vehicle id="veh_149" type="standard_car" route="route_8" depart="303.75" />
    <vehicle id="veh_150" type="standard_car" route="route_10" depart="305.41" />
    <vehicle id="veh_151" type="standard_car" route="route_8" depart="309.15" />
    <vehicle id="veh_152" type="standard_car" route="route_2" depart="309.17" />
    <vehicle id="veh_153" type="standard_car" route="route_8" depart="311.99" />
    <vehicle id="veh_154" type="standard_car" route="route_6" depart="317.96" />
    <vehicle id="veh_155" type="standard_car" route="route_5" depart="319.10" />
    <vehicle id="veh_156" type="standard_car" route="route_2" depart="321.31" />
    <vehicle id="veh_157" type="standard_car" route="route_3" depart="321.68" />
    <vehicle id="veh_158" type="standard_car" route="route_1" depart="323.55" />
    <vehicle id="veh_159" type="standard_car" route="route_5" depart="324.15" />
    <vehicle id="veh_160" type="standard_car" route="route_0" depart="325.26" />
    <vehicle id="veh_161" type="standard_car" route="route_1" depart="325.61" />
    <vehicle id="veh_162" type="standard_car" route="route_10" depart="326.22" />
    <vehicle id="veh_163" type="standard_car" route="route_3" depart="330.38" />
    <vehicle id="veh_164" type="standard_car" route="route_5" depart="330.80" />
    <vehicle id="veh_165" type="standard_car" route="route_5" depart="330.96" />
    <vehicle id="veh_166" type="standard_car" route="route_4" depart="331.78" />
    <vehicle id="veh_167" type="standard_car" route="route_4" depart="332.60" />
    <vehicle id="veh_168" type="standard_car" route="route_7" depart="333.92" />
    <vehicle id="veh_169" type="standard_car" route="route_4" depart="335.14" />
    <vehicle id="veh_170" type="standard_car" route="route_9" depart="337.45" />
    <vehicle id="veh_171" type="standard_car" route="route_6" depart="339.20" />
    <vehicle id="veh_172" type="standard_car" route="route_1" depart="340.89" />
    <vehicle id="veh_173" type="standard_car" route="route_5" depart="343.61" />
    <vehicle id="veh_174" type="standard_car" route="route_9" depart="344.08" />
    <vehicle id="veh_175" type="standard_car" route="route_2" depart="345.63" />
    <vehicle id="veh_176" type="standard_car" route="route_10" depart="346.37" />
    <vehicle id="veh_177" type="standard_car" route="route_1" depart="346.57" />
    <vehicle id="veh_178" type="standard_car" route="route_4" depart="347.61" />
    <vehicle id="veh_179" type="standard_car" route="route_1" depart="349.28" />
    <vehicle id="veh_180" type="standard_car" route="route_0" depart="350.13" />
    <vehicle id="veh_181" type="standard_car" route="route_7" depart="350.83" />
    <vehicle id="veh_182" type="standard_car" route="route_8" depart="352.13" />
    <vehicle id="veh_183" type="standard_car" route="route_4" depart="354.05" />
    <vehicle id="veh_184" type="standard_car" route="route_8" depart="354.91" />
    <vehicle id="veh_185" type="standard_car" route="route_8" depart="355.36" />
    <vehicle id="veh_186" type="standard_car" route="route_2" depart="360.61" />
    <vehicle id="veh_187" type="standard_car" route="route_6" depart="364.93" />
    <vehicle id="veh_188" type="standard_car" route="route_4" depart="368.54" />
    <vehicle id="veh_189" type="standard_car" route="route_6" depart="369.54" />
    <vehicle id="veh_190" type="standard_car" route="route_3" depart="374.64" />
    <vehicle id="veh_191" type="standard_car" route="route_3" depart="377.86" />
    <vehicle id="veh_192" type="standard_car" route="route_5" depart="379.07" />
    <vehicle id="veh_193" type="standard_car" route="route_8" depart="381.17" />
    <vehicle id="veh_194" type="standard_car" route="route_9" depart="381.71" />
    <vehicle id="veh_195" type="standard_car" route="route_0" depart="383.61" />
    <vehicle id="veh_196" type="standard_car" route="route_1" depart="387.76" />
    <vehicle id="veh_197" type="standard_car" route="route_2" depart="389.77" />
    <vehicle id="veh_198" type="standard_car" route="route_8" depart="391.42" />
    <vehicle id="veh_199" type="standard_car" route="route_11" depart="391.75" />
    <vehicle id="veh_200" type="standard_car" route="route_11" depart="396.36" />
    <vehicle id="veh_201" type="standard_car" route="route_9" depart="397.22" />
    <vehicle id="veh_202" type="standard_car" route="route_11" depart="402.62" />
    <vehicle id="veh_203" type="standard_car" route="route_8" depart="402.85" />
    <vehicle id="veh_204" type="standard_car" route="route_10" depart="403.13" />
    <vehicle id="veh_205" type="standard_car" route="route_0" depart="403.25" />
    <vehicle id="veh_206" type="standard_car" route="route_2" depart="404.73" />
    <vehicle id="veh_207" type="standard_car" route="route_8" depart="406.40" />
    <vehicle id="veh_208" type="standard_car" route="route_2" depart="407.01" />
    <vehicle id="veh_209" type="standard_car" route="route_10" depart="407.14" />
    <vehicle id="veh_210" type="standard_car" route="route_4" depart="407.75" />
    <vehicle id="veh_211" type="standard_car" route="route_7" depart="408.90" />
    <vehicle id="veh_212" type="standard_car" route="route_10" depart="409.98" />
    <vehicle id="veh_213" type="standard_car" route="route_9" depart="410.22" />
    <vehicle id="veh_214" type="standard_car" route="route_6" depart="410.83" />
    <vehicle id="veh_215" type="standard_car" route="route_4" depart="416.74" />
    <vehicle id="veh_216" type="standard_car" route="route_6" depart="419.97" />
    <vehicle id="veh_217" type="standard_car" route="route_4" depart="420.50" />
    <vehicle id="veh_218" type="standard_car" route="route_11" depart="426.66" />
    <vehicle id="veh_219" type="standard_car" route="route_10" depart="427.57" />
    <vehicle id="veh_220" type="standard_car" route="route_10" depart="428.20" />
    <vehicle id="veh_221" type="standard_car" route="route_6" depart="428.36" />
    <vehicle id="veh_222" type="standard_car" route="route_2" depart="430.56" />
    <vehicle id="veh_223" type="standard_car" route="route_3" depart="436.58" />
    <vehicle id="veh_224" type="standard_car" route="route_10" depart="438.35" />
    <vehicle id="veh_225" type="standard_car" route="route_2" depart="439.42" />
    <vehicle id="veh_226" type="standard_car" route="route_9" depart="439.54" />
    <vehicle id="veh_227" type="standard_car" route="route_0" depart="440.80" />
    <vehicle id="veh_228" type="standard_car" route="route_8" depart="442.44" />
    <vehicle id="veh_229" type="standard_car" route="route_8" depart="443.13" />
    <vehicle id="veh_230" type="standard_car" route="route_6" depart="443.65" />
    <vehicle id="veh_231" type="standard_car" route="route_3" depart="446.59" />
    <vehicle id="veh_232" type="standard_car" route="route_8" depart="447.82" />
    <vehicle id="veh_233" type="standard_car" route="route_10" depart="448.52" />
    <vehicle id="veh_234" type="standard_car" route="route_11" depart="449.94" />
    <vehicle id="veh_235" type="standard_car" route="route_1" depart="450.34" />
    <vehicle id="veh_236" type="standard_car" route="route_2" depart="450.57" />
    <vehicle id="veh_237" type="standard_car" route="route_0" depart="453.77" />
    <vehicle id="veh_238" type="standard_car" route="route_9" depart="454.45" />
    <vehicle id="veh_239" type="standard_car" route="route_10" depart="459.95" />
    <vehicle id="veh_240" type="standard_car" route="route_11" depart="465.40" />
    <vehicle id="veh_241" type="standard_car" route="route_11" depart="465.43" />
    <vehicle id="veh_242" type="standard_car" route="route_5" depart="465.48" />
    <vehicle id="veh_243" type="standard_car" route="route_1" depart="467.37" />
    <vehicle id="veh_244" type="standard_car" route="route_9" depart="471.67" />
    <vehicle id="veh_245" type="standard_car" route="route_9" depart="472.31" />
    <vehicle id="veh_246" type="standard_car" route="route_10" depart="473.06" />
    <vehicle id="veh_247" type="standard_car" route="route_10" depart="479.17" />
    <vehicle id="veh_248" type="standard_car" route="route_3" depart="479.72" />
    <vehicle id="veh_249" type="standard_car" route="route_1" depart="480.59" />
    <vehicle id="veh_250" type="standard_car" route="route_4" depart="482.38" />
    <vehicle id="veh_251" type="standard_car" route="route_8" depart="482.61" />
    <vehicle id="veh_252" type="standard_car" route="route_4" depart="483.03" />
    <vehicle id="veh_253" type="standard_car" route="route_4" depart="483.36" />
    <vehicle id="veh_254" type="standard_car" route="route_3" depart="485.47" />
    <vehicle id="veh_255" type="standard_car" route="route_7" depart="485.54" />
    <vehicle id="veh_256" type="standard_car" route="route_4" depart="486.72" />
    <vehicle id="veh_257" type="standard_car" route="route_1" depart="488.62" />
    <vehicle id="veh_258" type="standard_car" route="route_9" depart="490.25" />
    <vehicle id="veh_259" type="standard_car" route="route_10" depart="491.24" />
    <vehicle id="veh_260" type="standard_car" route="route_8" depart="492.17" />
    <vehicle id="veh_261" type="standard_car" route="route_11" depart="492.58" />
    <vehicle id="veh_262" type="standard_car" route="route_11" depart="496.79" />
    <vehicle id="veh_263" type="standard_car" route="route_2" depart="496.79" />
    <vehicle id="veh_264" type="standard_car" route="route_10" depart="498.68" />
    <vehicle id="veh_265" type="standard_car" route="route_0" depart="500.06" />
    <vehicle id="veh_266" type="standard_car" route="route_4" depart="501.26" />
    <vehicle id="veh_267" type="standard_car" route="route_11" depart="502.50" />
    <vehicle id="veh_268" type="standard_car" route="route_7" depart="503.91" />
    <vehicle id="veh_269" type="standard_car" route="route_5" depart="507.05" />
    <vehicle id="veh_270" type="standard_car" route="route_6" depart="507.08" />
    <vehicle id="veh_271" type="standard_car" route="route_10" depart="510.02" />
    <vehicle id="veh_272" type="standard_car" route="route_6" depart="511.83" />
    <vehicle id="veh_273" type="standard_car" route="route_8" depart="512.24" />
    <vehicle id="veh_274" type="standard_car" route="route_11" depart="519.69" />
    <vehicle id="veh_275" type="standard_car" route="route_9" depart="519.71" />
    <vehicle id="veh_276" type="standard_car" route="route_7" depart="522.22" />
    <vehicle id="veh_277" type="standard_car" route="route_9" depart="524.29" />
    <vehicle id="veh_278" type="standard_car" route="route_6" depart="526.88" />
    <vehicle id="veh_279" type="standard_car" route="route_7" depart="527.34" />
    <vehicle id="veh_280" type="standard_car" route="route_7" depart="532.33" />
    <vehicle id="veh_281" type="standard_car" route="route_9" depart="538.36" />
    <vehicle id="veh_282" type="standard_car" route="route_0" depart="542.15" />
    <vehicle id="veh_283" type="standard_car" route="route_2" depart="546.73" />
    <vehicle id="veh_284" type="standard_car" route="route_11" depart="547.12" />
    <vehicle id="veh_285" type="standard_car" route="route_1" depart="549.33" />
    <vehicle id="veh_286" type="standard_car" route="route_10" depart="552.94" />
    <vehicle id="veh_287" type="standard_car" route="route_8" depart="556.54" />
    <vehicle id="veh_288" type="standard_car" route="route_8" depart="561.54" />
    <vehicle id="veh_289" type="standard_car" route="route_11" depart="563.29" />
    <vehicle id="veh_290" type="standard_car" route="route_11" depart="565.78" />
    <vehicle id="veh_291" type="standard_car" route="route_7" depart="565.84" />
    <vehicle id="veh_292" type="standard_car" route="route_11" depart="566.33" />
    <vehicle id="veh_293" type="standard_car" route="route_7" depart="569.10" />
    <vehicle id="veh_294" type="standard_car" route="route_0" depart="572.51" />
    <vehicle id="veh_295" type="standard_car" route="route_10" depart="572.73" />
    <vehicle id="veh_296" type="standard_car" route="route_5" depart="573.23" />
    <vehicle id="veh_297" type="standard_car" route="route_5" depart="573.51" />
    <vehicle id="veh_298" type="standard_car" route="route_0" depart="576.34" />
    <vehicle id="veh_299" type="standard_car" route="route_5" depart="576.35" />
    <vehicle id="veh_300" type="standard_car" route="route_0" depart="577.04" />
    <vehicle id="veh_301" type="standard_car" route="route_10" depart="578.95" />
    <vehicle id="veh_302" type="standard_car" route="route_3" depart="579.93" />
    <vehicle id="veh_303" type="standard_car" route="route_11" depart="581.34" />
    <vehicle id="veh_304" type="standard_car" route="route_2" depart="581.73" />
    <vehicle id="veh_305" type="standard_car" route="route_10" depart="582.01" />
    <vehicle id="veh_306" type="standard_car" route="route_4" depart="582.27" />
    <vehicle id="veh_307" type="standard_car" route="route_9" depart="587.40" />
    <vehicle id="veh_308" type="standard_car" route="route_11" depart="588.52" />
    <vehicle id="veh_309" type="standard_car" route="route_0" depart="590.92" />
    <vehicle id="veh_310" type="standard_car" route="route_6" depart="593.79" />
    <vehicle id="veh_311" type="standard_car" route="route_10" depart="596.82" />
    <vehicle id="veh_312" type="standard_car" route="route_4" depart="603.18" />
    <vehicle id="veh_313" type="standard_car" route="route_11" depart="604.88" />
    <vehicle id="veh_314" type="standard_car" route="route_3" depart="605.14" />
    <vehicle id="veh_315" type="standard_car" route="route_10" depart="607.22" />
    <vehicle id="veh_316" type="standard_car" route="route_5" depart="607.34" />
    <vehicle id="veh_317" type="standard_car" route="route_6" depart="608.31" />
    <vehicle id="veh_318" type="standard_car" route="route_9" depart="609.86" />
    <vehicle id="veh_319" type="standard_car" route="route_1" depart="615.16" />
    <vehicle id="veh_320" type="standard_car" route="route_6" depart="618.22" />
    <vehicle id="veh_321" type="standard_car" route="route_10" depart="621.51" />
    <vehicle id="veh_322" type="standard_car" route="route_5" depart="621.63" />
    <vehicle id="veh_323" type="standard_car" route="route_11" depart="621.68" />
    <vehicle id="veh_324" type="standard_car" route="route_11" depart="623.46" />
    <vehicle id="veh_325" type="standard_car" route="route_3" depart="623.93" />
    <vehicle id="veh_326" type="standard_car" route="route_8" depart="624.27" />
    <vehicle id="veh_327" type="standard_car" route="route_6" depart="626.22" />
    <vehicle id="veh_328" type="standard_car" route="route_8" depart="626.41" />
    <vehicle id="veh_329" type="standard_car" route="route_7" depart="629.24" />
    <vehicle id="veh_330" type="standard_car" route="route_7" depart="629.71" />
    <vehicle id="veh_331" type="standard_car" route="route_5" depart="632.39" />
    <vehicle id="veh_332" type="standard_car" route="route_5" depart="635.28" />
    <vehicle id="veh_333" type="standard_car" route="route_3" depart="635.96" />
    <vehicle id="veh_334" type="standard_car" route="route_11" depart="636.66" />
    <vehicle id="veh_335" type="standard_car" route="route_0" depart="637.30" />
    <vehicle id="veh_336" type="standard_car" route="route_11" depart="639.32" />
    <vehicle id="veh_337" type="standard_car" route="route_10" depart="641.35" />
    <vehicle id="veh_338" type="standard_car" route="route_3" depart="642.17" />
    <vehicle id="veh_339" type="standard_car" route="route_4" depart="642.23" />
    <vehicle id="veh_340" type="standard_car" route="route_10" depart="642.44" />
    <vehicle id="veh_341" type="standard_car" route="route_5" depart="645.11" />
    <vehicle id="veh_342" type="standard_car" route="route_4" depart="645.17" />
    <vehicle id="veh_343" type="standard_car" route="route_5" depart="647.21" />
    <vehicle id="veh_344" type="standard_car" route="route_5" depart="648.48" />
    <vehicle id="veh_345" type="standard_car" route="route_7" depart="652.76" />
    <vehicle id="veh_346" type="standard_car" route="route_3" depart="653.16" />
    <vehicle id="veh_347" type="standard_car" route="route_6" depart="654.44" />
    <vehicle id="veh_348" type="standard_car" route="route_10" depart="654.50" />
    <vehicle id="veh_349" type="standard_car" route="route_11" depart="654.60" />
    <vehicle id="veh_350" type="standard_car" route="route_3" depart="658.30" />
    <vehicle id="veh_351" type="standard_car" route="route_1" depart="660.09" />
    <vehicle id="veh_352" type="standard_car" route="route_5" depart="661.46" />
    <vehicle id="veh_353" type="standard_car" route="route_8" depart="663.01" />
    <vehicle id="veh_354" type="standard_car" route="route_5" depart="664.48" />
    <vehicle id="veh_355" type="standard_car" route="route_4" depart="664.50" />
    <vehicle id="veh_356" type="standard_car" route="route_11" depart="666.39" />
    <vehicle id="veh_357" type="standard_car" route="route_1" depart="666.76" />
    <vehicle id="veh_358" type="standard_car" route="route_2" depart="667.68" />
    <vehicle id="veh_359" type="standard_car" route="route_4" depart="671.00" />
    <vehicle id="veh_360" type="standard_car" route="route_3" depart="671.17" />
    <vehicle id="veh_361" type="standard_car" route="route_9" depart="673.71" />
    <vehicle id="veh_362" type="standard_car" route="route_0" depart="674.24" />
    <vehicle id="veh_363" type="standard_car" route="route_1" depart="675.21" />