<?xml version="1.0" encoding="UTF-8"?>

<!-- generated on 2026-02-11 22:52:43.577347 by Eclipse SUMO cutRoutes.py v1.26.0
<configuration>
    <routes-output value="I/I.rou.xml"/>
    <orig-net value="berlin-small.net.xml"/>
    <network value="I/I.net.xml"/>
    <routeFiles value="berlin-small.rou.xml"/>
</configuration>
-->

<routes xmlns:xsi="http://www.w3.org/2001/XMLSchema-instance" xsi:noNamespaceSchemaLocation="http://sumo.dlr.de/xsd/routes_file.xsd">
    <vType id="DefaultVehicle" length="5.00" minGap="2.00" maxSpeed="50.00" accel="1.50" decel="4.50" sigma="0.50" tau="1.00"/>
    <vehicle id="128" type="DefaultVehicle" depart="376.56" departLane="best" departSpeed="max">
        <route edges="-25950000#2 -661400763#2 -8084132#13"/>
    </vehicle>
    <vehicle id="230" type="DefaultVehicle" depart="886.53" departLane="best" departSpeed="max">
        <route edges="140498882#2 30422501 -69873799#2 28197508#0"/>
    </vehicle>
    <vehicle id="618" type="DefaultVehicle" depart="1713.91" departLane="best" departSpeed="max">
        <route edges="-28197508#2 -661400763#2 40644892 -140498882#2"/>
    </vehicle>
    <vehicle id="651" type="DefaultVehicle" depart="2019.46" departLane="best" departSpeed="max">
        <route edges="8084132#13 661400763#0 25950000#0"/>
    </vehicle>
    <vehicle id="654" type="DefaultVehicle" depart="2139.48" departLane="best" departSpeed="max">
        <route edges="-28197508#2 25950000#0"/>
    </vehicle>
    <vehicle id="773" type="DefaultVehicle" depart="2408.67" departLane="best" departSpeed="max">
        <route edges="-28197508#2 -661400763#2 40644892 -140498882#2"/>
    </vehicle>
    <vehicle id="762" type="DefaultVehicle" depart="2513.00" departLane="best" departSpeed="max">
        <route edges="-28197508#2 25950000#0"/>
    </vehicle>
    <vehicle id="813" type="DefaultVehicle" depart="2800.26" departLane="best" departSpeed="max">
        <route edges="8084132#13 40644892 -140498882#2"/>
    </vehicle>
    <vehicle id="860" type="DefaultVehicle" depart="3536.36" departLane="best" departSpeed="max">
        <route edges="140498882#2 30422501 -69873799#2 28197508#0"/>
    </vehicle>
    <vehicle id="987" type="DefaultVehicle" depart="4025.47" departLane="best" departSpeed="max">
        <route edges="8084132#13 661400763#0 25950000#0"/>
    </vehicle>
    <vehicle id="1225" type="DefaultVehicle" depart="4408.03" departLane="best" departSpeed="max">
        <route edges="8084132#13 40644892 30422501 -69873799#2 28197508#0"/>
    </vehicle>
    <vehicle id="1542" type="DefaultVehicle" depart="5680.57" departLane="best" departSpeed="max">
        <route edges="140498882#2 30422501 -69873799#2 28197508#0"/>
    </vehicle>
    <vehicle id="1626" type="DefaultVehicle" depart="5881.79" departLane="best" departSpeed="max">
        <route edges="-25950000#2 -661400763#2 -8084132#13"/>
    </vehicle>
    <vehicle id="1646" type="DefaultVehicle" depart="5944.96" departLane="best" departSpeed="max">
        <route edges="-25950000#2 -661400763#2 -8084132#13"/>
    </vehicle>
    <vehicle id="1645" type="DefaultVehicle" depart="6081.23" departLane="best" departSpeed="max">
        <route edges="-25950000#2 -661400763#2 -8084132#13"/>
    </vehicle>
    <vehicle id="1689" type="DefaultVehicle" depart="6149.31" departLane="best" departSpeed="max">
        <route edges="-25950000#2 -661400763#2 -8084132#13"/>
    </vehicle>
    <vehicle id="1752" type="DefaultVehicle" depart="6467.68" departLane="best" departSpeed="max">
        <route edges="140498882#2 30422501 -69873799#2 28197508#0"/>
    </vehicle>
    <vehicle id="1797" type="DefaultVehicle" depart="6533.96" departLane="best" departSpeed="max">
        <route edges="-25950000#2 -661400763#2 -8084132#13"/>
    </vehicle>
    <vehicle id="2141" type="DefaultVehicle" depart="7614.66" departLane="best" departSpeed="max">
        <route edges="-28197508#2 25950000#0"/>
    </vehicle>
    <vehicle id="2178" type="DefaultVehicle" depart="7897.92" departLane="best" departSpeed="max">
        <route edges="-25950000#2 -661400763#2 -8084132#13"/>
    </vehicle>
    <vehicle id="2619" type="DefaultVehicle" depart="8567.84" departLane="best" departSpeed="max">
        <route edges="-25950000#2 -661400763#2 -8084132#13"/>
    </vehicle>
    <vehicle id="2636" type="DefaultVehicle" depart="8600.79" departLane="best" departSpeed="max">
        <route edges="-25950000#2 -661400763#2 40644892 -140498882#2"/>
    </vehicle>
    <vehicle id="2947" type="DefaultVehicle" depart="9584.01" departLane="best" departSpeed="max">
        <route edges="8084132#13 40644892 -140498882#2"/>
    </vehicle>
    <vehicle id="3763" type="DefaultVehicle" depart="11055.64" departLane="best" departSpeed="max">
        <route edges="-25950000#2 -661400763#2 -8084132#13"/>
    </vehicle>
    <vehicle id="4258" type="DefaultVehicle" depart="11487.28" departLane="best" departSpeed="max">
        <route edges="-28197508#2 -661400763#2 40644892 -140498882#2"/>
    </vehicle>
    <vehicle id="4375" type="DefaultVehicle" depart="11647.79" departLane="best" departSpeed="max">
        <route edges="-25950000#2 -661400763#2 -8084132#13"/>
    </vehicle>
    <vehicle id="4396" type="DefaultVehicle" depart="11685.48" departLane="best" departSpeed="max">
        <route edges="-28197508#2 -661400763#2 40644892 -140498882#2"/>
    </vehicle>
    <vehicle id="4563" type="DefaultVehicle" depart="11966.58" departLane="best" departSpeed="max">
        <route edges="-28197508#2 -661400763#2 40644892 -140498882#2"/>
    </vehicle>
    <vehicle id="4681" type="DefaultVehicle" depart="12115.55" departLane="best" departSpeed="max">
        <route edges="-28197508#2 -661400763#2 40644892 -140498882#2"/>
    </vehicle>
    <vehicle id="4889" type="DefaultVehicle" depart="12351.45" departLane="best" departSpeed="max">
        <route edges="-28197508#2 -661400763#2 40644892 -140498882#2"/>
    </vehicle>
    <vehicle id="4913" type="DefaultVehicle" depart="12368.90" departLane="best" departSpeed="max">
        <route edges="-25950000#2 -661400763#2 -8084132#13"/>
    </vehicle>
    <vehicle id="4976" type="DefaultVehicle" depart="12415.00">
        <route edges="-25950000#2 -661400763#2 40644892 -140498882#2"/>
    </vehicle>
    <vehicle id="4926" type="DefaultVehicle" depart="12554.95" departLane="best" departSpeed="max">
        <route edges="140498882#2 30422501 -69873799#2 28197508#0"/>
    </vehicle>
    <vehicle id="5081" type="DefaultVehicle" depart="12627.08" departLane="best" departSpeed="max">
        <route edges="-25950000#2 28197508#0"/>
    </vehicle>
    <vehicle id="5219" type="DefaultVehicle" depart="12839.48" departLane="best" departSpeed="max">
        <route edges="140498882#2 30422501 -69873799#2 28197508#0"/>
    </vehicle>
    <vehicle id="5441" type="DefaultVehicle" depart="12975.79" departLane="best" departSpeed="max">
        <route edges="-25950000#2 -661400763#2 -8084132#13"/>
    </vehicle>
    <vehicle id="5576" type="DefaultVehicle" depart="13229.00" departLane="best" departSpeed="max">
        <route edges="140498882#2 30422501 -69873799#2 28197508#0"/>
    </vehicle>
    <vehicle id="6018" type="DefaultVehicle" depart="13780.00" departLane="best" departSpeed="max">
        <route edges="-140498883#0"/>
    </vehicle>
    <vehicle id="6284" type="DefaultVehicle" depart="13828.93" departLane="best" departSpeed="max">
        <route edges="8084132#13 661400763#0 25950000#0"/>
    </vehicle>
    <vehicle id="7445" type="DefaultVehicle" depart="14957.29" departLane="best" departSpeed="max">
        <route edges="140498882#2 30422501 -69873799#2 28197508#0"/>
    </vehicle>
    <vehicle id="7776" type="DefaultVehicle" depart="14995.00">
        <route edges="-140498882#2"/>
    </vehicle>
    <vehicle id="8135" type="DefaultVehicle" depart="15286.28" departLane="best" departSpeed="max">
        <route edges="-25950000#2 -661400763#2 -8084132#13"/>
    </vehicle>
    <vehicle id="8190" type="DefaultVehicle" depart="15308.84" departLane="best" departSpeed="max">
        <route edges="-25950000#2 28197508#0"/>
    </vehicle>
    <vehicle id="8387" type="DefaultVehicle" depart="15427.08" departLane="best" departSpeed="max">
        <route edges="8084132#13 661400763#0 28197508#0"/>
    </vehicle>
    <vehicle id="8512" type="DefaultVehicle" depart="15561.32" departLane="best" departSpeed="max">
        <route edges="140498882#2 30422501 -69873799#2 28197508#0"/>
    </vehicle>
    <vehicle id="8526" type="DefaultVehicle" depart="15619.88" departLane="best" departSpeed="max">
        <route edges="-28197508#2 -661400763#2 -8084132#13"/>
    </vehicle>
    <vehicle id="8763" type="DefaultVehicle" depart="15635.67" departLane="best" departSpeed="max">
        <route edges="140498882#2 30422501 -69873799#2 28197508#0"/>
    </vehicle>
    <vehicle id="8883" type="DefaultVehicle" depart="15699.47" departLane="best" departSpeed="max">
        <route edges="-28197508#2 25950000#0"/>
    </vehicle>
    <vehicle id="8929" type="DefaultVehicle" depart="15702.00">
        <route edges="8084132#13 40644892 -140498882#2"/>
    </vehicle>
    <vehicle id="8648" type="DefaultVehicle" depart="15738.32" departLane="best" departSpeed="max">
        <route edges="140498882#2 30422501 -69873799#2 28197508#0"/>
    </vehicle>
    <vehicle id="8795" type="DefaultVehicle" depart="15765.64" departLane="best" departSpeed="max">
        <route edges="-28197508#2 -661400763#2 -8084132#13"/>
    </vehicle>
    <vehicle id="8831" type="DefaultVehicle" depart="15796.99" departLane="best" departSpeed="max">
        <route edges="-28197508#2 25950000#0"/>
    </vehicle>
    <vehicle id="8934" type="DefaultVehicle" depart="15797.48" departLane="best" departSpeed="max">
        <route edges="-25950000#2 -661400763#2 -8084132#13"/>
    </vehicle>
    <vehicle id="9063" type="DefaultVehicle" depart="15859.34" departLane="best" departSpeed="max">
        <route edges="140498882#2 30422501 -69873799#2 25950000#0"/>
    </vehicle>
    <vehicle id="8911" type="DefaultVehicle" depart="15925.36" departLane="best" departSpeed="max">
        <route edges="8084132#13 661400763#0 25950000#0"/>
    </vehicle>
    <vehicle id="8996" type="DefaultVehicle" depart="15936.78" departLane="best" departSpeed="max">
        <route edges="8084132#13 661400763#0 25950000#0"/>
    </vehicle>
    <vehicle id="9321" type="DefaultVehicle" depart="15948.21" departLane="best" departSpeed="max">
        <route edges="8084132#13 40644892 -140498882#2"/>
    </vehicle>
    <vehicle id="9128" type="DefaultVehicle" depart="15983.56" departLane="best" departSpeed="max">
        <route edges="-28197508#2 25950000#0"/>
    </vehicle>
    <vehicle id="9569" type="DefaultVehicle" depart="16063.00">
        <route edges="-140498883#0 -69873799#2 -661400763#2 40644892 -140498882#2"/>
    </vehicle>
    <vehicle id="9617" type="DefaultVehicle" depart="16121.28" departLane="best" departSpeed="max">
        <route edges="-28197508#2 25950000#0"/>
    </vehicle>
    <vehicle id="9686" type="DefaultVehicle" depart="16125.00">
        <route edges="-140498883#0 -69873799#2 28197508#0"/>
    </vehicle>
    <vehicle id="9447" type="DefaultVehicle" depart="16169.08" departLane="best" departSpeed="max">
        <route edges="-28197508#2 25950000#0"/>
    </vehicle>
    <vehicle id="9850" type="DefaultVehicle" depart="16201.00">
        <route edges="28197508#0"/>
    </vehicle>
    <vehicle id="9896" type="DefaultVehicle" depart="16275.60" departLane="best" departSpeed="max">
        <route edges="8084132#13 40644892 30422501 -69873799#2 25950000#0"/>
    </vehicle>
    <vehicle id="9862" type="DefaultVehicle" depart="16298.42" departLane="best" departSpeed="max">
        <route edges="-28197508#2 25950000#0"/>
    </vehicle>
    <vehicle id="10049" type="DefaultVehicle" depart="16358.71" departLane="best" departSpeed="max">
        <route edges="-28197508#2 -661400763#2 40644892 -140498882#2"/>
    </vehicle>
    <vehicle id="10205" type="DefaultVehicle" depart="16411.91" departLane="best" departSpeed="max">
        <route edges="8084132#13 40644892 -140498882#2"/>
    </vehicle>
    <vehicle id="10216" type="DefaultVehicle" depart="16420.81" departLane="best" departSpeed="max">
        <route edges="-28197508#2 25950000#0"/>
    </vehicle>
    <vehicle id="10190" type="DefaultVehicle" depart="16498.99" departLane="best" departSpeed="max">
        <route edges="-28197508#2 25950000#0"/>
    </vehicle>
    <vehicle id="10564" type="DefaultVehicle" depart="16577.11" departLane="best" departSpeed="max">
        <route edges="8084132#13 661400763#0 25950000#0"/>
    </vehicle>
    <vehicle id="9892" type="DefaultVehicle" depart="16623.14" departLane="best" departSpeed="max">
        <route edges="140498882#2 30422501 -69873799#2 28197508#0"/>
    </vehicle>
    <vehicle id="11074" type="DefaultVehicle" depart="16869.39" departLane="best" departSpeed="max">
        <route edges="-25950000#2 -661400763#2 -8084132#13"/>
    </vehicle>
    <vehicle id="11009" type="DefaultVehicle" depart="16899.85" departLane="best" departSpeed="max">
        <route edges="-28197508#2 -661400763#2 40644892 -140498882#2"/>
    </vehicle>
    <vehicle id="10360" type="DefaultVehicle" depart="16947.73" departLane="best" departSpeed="max">
        <route edges="-140498883#0"/>
    </vehicle>
    <vehicle id="11629" type="DefaultVehicle" depart="17114.10" departLane="best" departSpeed="max">
        <route edges="-28197508#2 -661400763#2 40644892 -140498882#2"/>
    </vehicle>
    <vehicle id="8351" type="DefaultVehicle" depart="17126.42" departLane="best" departSpeed="max">
        <route edges="140498882#2 30422501 -69873799#2 28197508#0"/>
    </vehicle>
    <vehicle id="11236" type="DefaultVehicle" depart="17260.34" departLane="best" departSpeed="max">
        <route edges="-25950000#2 -661400763#2 -8084132#13"/>
    </vehicle>
    <vehicle id="11293" type="DefaultVehicle" depart="17317.26" departLane="best" departSpeed="max">
        <route edges="-25950000#2 -661400763#2 -8084132#13"/>
    </vehicle>
    <vehicle id="12003" type="DefaultVehicle" depart="17510.25" departLane="best" departSpeed="max">
        <route edges="8084132#13 40644892 -140498882#2"/>
    </vehicle>
    <vehicle id="13083" type="DefaultVehicle" depart="17602.99" departLane="best" departSpeed="max">
        <route edges="-28197508#2 -661400763#2 40644892 -140498882#2"/>
    </vehicle>
    <vehicle id="13233" type="DefaultVehicle" depart="17682.86" departLane="best" departSpeed="max">
        <route edges="8084132#13 40644892 -140498882#2"/>
    </vehicle>
    <vehicle id="12586" type="DefaultVehicle" depart="17698.87" departLane="best" departSpeed="max">
        <route edges="-28197508#2 -661400763#2 40644892 -140498882#2"/>
    </vehicle>
    <vehicle id="12594" type="DefaultVehicle" depart="17714.82" departLane="best" departSpeed="max">
        <route edges="-28197508#2 -661400763#2 40644892 -140498882#2"/>
    </vehicle>
    <vehicle id="13115" type="DefaultVehicle" depart="17899.34" departLane="best" departSpeed="max">
        <route edges="-28197508#2 25950000#0"/>
    </vehicle>
    <vehicle id="14123" type="DefaultVehicle" depart="17935.28" departLane="best" departSpeed="max">
        <route edges="-28197508#2 -661400763#2 40644892 -140498882#2"/>
    </vehicle>
    <vehicle id="14698" type="DefaultVehicle" depart="18273.95" departLane="best" departSpeed="max">
        <route edges="8084132#13 661400763#0 25950000#0"/>
    </vehicle>
    <vehicle id="15800" type="DefaultVehicle" depart="18367.99" departLane="best" departSpeed="max">
        <route edges="-28197508#2 -661400763#2 40644892 -140498882#2"/>
    </vehicle>
    <vehicle id="15795" type="DefaultVehicle" depart="18386.36" departLane="best" departSpeed="max">
        <route edges="-28197508#2 -661400763#2 40644892 -140498882#2"/>
    </vehicle>
    <vehicle id="17332" type="DefaultVehicle" depart="18694.00">
        <route edges="-25950000#2 -661400763#2 -8084132#13"/>
    </vehicle>
    <vehicle id="16342" type="DefaultVehicle" depart="18720.21" departLane="best" departSpeed="max">
        <route edges="140498882#2 30422501 -69873799#2 28197508#0"/>
    </vehicle>
    <vehicle id="18446" type="DefaultVehicle" depart="18939.79" departLane="best" departSpeed="max">
        <route edges="-25950000#2 28197508#0"/>
    </vehicle>
    <vehicle id="17810" type="DefaultVehicle" depart="18976.85" departLane="best" departSpeed="max">
        <route edges="140498882#2 30422501 -69873799#2 28197508#0"/>
    </vehicle>
    <vehicle id="15797" type="DefaultVehicle" depart="18992.42" departLane="best" departSpeed="max">
        <route edges="-28197508#2 -661400763#2 40644892 -140498882#2"/>
    </vehicle>
    <vehicle id="17512" type="DefaultVehicle" depart="19134.08" departLane="best" departSpeed="max">
        <route edges="8084132#13 661400763#0 25950000#0"/>
    </vehicle>
    <vehicle id="19220" type="DefaultVehicle" depart="19178.63" departLane="best" departSpeed="max">
        <route edges="8084132#13 661400763#0 25950000#0"/>
    </vehicle>
    <vehicle id="20029" type="DefaultVehicle" depart="19194.41" departLane="best" departSpeed="max">
        <route edges="-25950000#2 28197508#0"/>
    </vehicle>
    <vehicle id="17790" type="DefaultVehicle" depart="19262.53" departLane="best" departSpeed="max">
        <route edges="8084132#13 661400763#0 28197508#0"/>
    </vehicle>
    <vehicle id="20525" type="DefaultVehicle" depart="19273.71" departLane="best" departSpeed="max">
        <route edges="8084132#13 661400763#0 25950000#0"/>
    </vehicle>
    <vehicle id="16806" type="DefaultVehicle" depart="19310.56" departLane="best" departSpeed="max">
        <route edges="-25950000#2 28197508#0"/>
    </vehicle>
    <vehicle id="20411" type="DefaultVehicle" depart="19314.49" departLane="best" departSpeed="max">
        <route edges="-28197508#2 -661400763#2 40644892 -140498882#2"/>
    </vehicle>
    <vehicle id="20931" type="DefaultVehicle" depart="19454.27" departLane="best" departSpeed="max">
        <route edges="-28197508#2 25950000#0"/>
    </vehicle>
    <vehicle id="20780" type="DefaultVehicle" depart="19460.53" departLane="best" departSpeed="max">
        <route edges="-25950000#2 -661400763#2 -8084132#13"/>
    </vehicle>
    <vehicle id="21332" type="DefaultVehicle" depart="19524.62" departLane="best" departSpeed="max">
        <route edges="8084132#13 661400763#0 25950000#0"/>
    </vehicle>
    <vehicle id="22157" type="DefaultVehicle" depart="19587.16" departLane="best" departSpeed="max">
        <route edges="8084132#13 661400763#0 25950000#0"/>
    </vehicle>
    <vehicle id="22829" type="DefaultVehicle" depart="19660.09" departLane="best" departSpeed="max">
        <route edges="8084132#13 40644892 30422501 -69873799#2 25950000#0"/>
    </vehicle>
    <vehicle id="23799" type="DefaultVehicle" depart="19707.79" departLane="best" departSpeed="max">
        <route edges="-25950000#2 28197508#0"/>
    </vehicle>
    <vehicle id="24116" type="DefaultVehicle" depart="19724.71" departLane="best" departSpeed="max">
        <route edges="8084132#13 40644892 30422501 -69873799#2 25950000#0"/>
    </vehicle>
    <vehicle id="20797" type="DefaultVehicle" depart="19743.50" departLane="best" departSpeed="max">
        <route edges="-28197508#2 -661400763#2 40644892 -140498882#2"/>
    </vehicle>
    <vehicle id="24220" type="DefaultVehicle" depart="19754.83" departLane="best" departSpeed="max">
        <route edges="8084132#13 661400763#0 25950000#0"/>
    </vehicle>
    <vehicle id="24239" type="DefaultVehicle" depart="19760.08" departLane="best" departSpeed="max">
        <route edges="8084132#13 661400763#0 25950000#0"/>
    </vehicle>
    <vehicle id="24017" type="DefaultVehicle" depart="19761.68" departLane="best" departSpeed="max">
        <route edges="8084132#13 661400763#0 25950000#0"/>
    </vehicle>
    <vehicle id="23755" type="DefaultVehicle" depart="19778.22" departLane="best" departSpeed="max">
        <route edges="-28197508#2 -661400763#2 40644892 -140498882#2"/>
    </vehicle>
    <vehicle id="24229" type="DefaultVehicle" depart="19782.94" departLane="best" departSpeed="max">
        <route edges="140498882#2 30422501 -69873799#2 25950000#0"/>
    </vehicle>
    <vehicle id="23484" type="DefaultVehicle" depart="19806.34" departLane="best" departSpeed="max">
        <route edges="8084132#13 661400763#0 25950000#0"/>
    </vehicle>
    <vehicle id="24690" type="DefaultVehicle" depart="19819.04" departLane="best" departSpeed="max">
        <route edges="8084132#13 40644892 30422501 -69873799#2 25950000#0"/>
    </vehicle>
    <vehicle id="23892" type="DefaultVehicle" depart="19852.88" departLane="best" departSpeed="max">
        <route edges="-25950000#2 -661400763#2 -8084132#13"/>
    </vehicle>
    <vehicle id="24949" type="DefaultVehicle" depart="19909.17" departLane="best" departSpeed="max">
        <route edges="8084132#13 661400763#0 25950000#0"/>
    </vehicle>
    <vehicle id="24248" type="DefaultVehicle" depart="19936.14" departLane="best" departSpeed="max">
        <route edges="-25950000#2 -661400763#2 -8084132#13"/>
    </vehicle>
    <vehicle id="25604" type="DefaultVehicle" depart="20011.63" departLane="best" departSpeed="max">
        <route edges="8084132#13 40644892 30422501 -69873799#2 25950000#0"/>
    </vehicle>
    <vehicle id="20974" type="DefaultVehicle" depart="20046.14" departLane="best" departSpeed="max">
        <route edges="-25950000#2 28197508#0"/>
    </vehicle>
    <vehicle id="27299" type="DefaultVehicle" depart="20078.84" departLane="best" departSpeed="max">
        <route edges="-25950000#2 28197508#0"/>
    </vehicle>
    <vehicle id="26515" type="DefaultVehicle" depart="20095.89" departLane="best" departSpeed="max">
        <route edges="-28197508#2 25950000#0"/>
    </vehicle>
    <vehicle id="27526" type="DefaultVehicle" depart="20099.24" departLane="best" departSpeed="max">
        <route edges="8084132#13 40644892 30422501 -69873799#2 25950000#0"/>
    </vehicle>
    <vehicle id="25451" type="DefaultVehicle" depart="20129.33" departLane="best" departSpeed="max">
        <route edges="-25950000#2 -661400763#2 -8084132#13"/>
    </vehicle>
    <vehicle id="24327" type="DefaultVehicle" depart="20145.04" departLane="best" departSpeed="max">
        <route edges="-28197508#2 -661400763#2 40644892 -140498882#2"/>
    </vehicle>
    <vehicle id="28429" type="DefaultVehicle" depart="20148.00">
        <route edges="8084132#13 661400763#0 25950000#0"/>
    </vehicle>
    <vehicle id="20531" type="DefaultVehicle" depart="20177.63" departLane="best" departSpeed="max">
        <route edges="8084132#13 661400763#0 25950000#0"/>
    </vehicle>
    <vehicle id="29053" type="DefaultVehicle" depart="20301.14" departLane="best" departSpeed="max">
        <route edges="-28197508#2 -661400763#2 40644892 -140498882#2"/>
    </vehicle>
    <vehicle id="24354" type="DefaultVehicle" depart="20309.27" departLane="best" departSpeed="max">
        <route edges="140498882#2 30422501 -69873799#2 25950000#0"/>
    </vehicle>
    <vehicle id="21088" type="DefaultVehicle" depart="20356.80" departLane="best" departSpeed="max">
        <route edges="-25950000#2 -661400763#2 -8084132#13"/>
    </vehicle>
    <vehicle id="28320" type="DefaultVehicle" depart="20377.50" departLane="best" departSpeed="max">
        <route edges="-25950000#2 -661400763#2 -8084132#13"/>
    </vehicle>
    <vehicle id="30902" type="DefaultVehicle" depart="20378.00" departLane="best" departSpeed="max">
        <route edges="140498882#2 30422501 -69873799#2 25950000#0"/>
    </vehicle>
    <vehicle id="24623" type="DefaultVehicle" depart="20399.03" departLane="best" departSpeed="max">
        <route edges="8084132#13 661400763#0 25950000#0"/>
    </vehicle>
    <vehicle id="26305" type="DefaultVehicle" depart="20427.12" departLane="best" departSpeed="max">
        <route edges="-28197508#2 25950000#0"/>
    </vehicle>
    <vehicle id="31477" type="DefaultVehicle" depart="20473.07" departLane="best" departSpeed="max">
        <route edges="-25950000#2 -661400763#2 -8084132#13"/>
    </vehicle>
    <vehicle id="29009" type="DefaultVehicle" depart="20504.33" departLane="best" departSpeed="max">
        <route edges="-28197508#2 -661400763#2 40644892 -140498882#2"/>
    </vehicle>
    <vehicle id="32931" type="DefaultVehicle" depart="20543.08" departLane="best" departSpeed="max">
        <route edges="8084132#13 661400763#0 25950000#0"/>
    </vehicle>
    <vehicle id="33360" type="DefaultVehicle" depart="20569.79" departLane="best" departSpeed="max">
        <route edges="-25950000#2 -661400763#2 40644892 -140498882#2"/>
    </vehicle>
    <vehicle id="32538" type="DefaultVehicle" depart="20621.65" departLane="best" departSpeed="max">
        <route edges="-28197508#2 -661400763#2 40644892 -140498882#2"/>
    </vehicle>
    <vehicle id="34743" type="DefaultVehicle" depart="20643.00">
        <route edges="-140498883#0 -69873799#2 -661400763#2 -8084132#13"/>
    </vehicle>
    <vehicle id="34305" type="DefaultVehicle" depart="20669.17" departLane="best" departSpeed="max">
        <route edges="140498882#2 30422501 -69873799#2 28197508#0"/>
    </vehicle>
    <vehicle id="29008" type="DefaultVehicle" depart="20701.25" departLane="best" departSpeed="max">
        <route edges="140498882#2 30422501 -69873799#2 28197508#0"/>
    </vehicle>
    <vehicle id="28197" type="DefaultVehicle" depart="20719.04" departLane="best" departSpeed="max">
        <route edges="140498882#2 30422501 -69873799#2 28197508#0"/>
    </vehicle>
    <vehicle id="34622" type="DefaultVehicle" depart="20730.14" departLane="best" departSpeed="max">
        <route edges="-28197508#2 -661400763#2 40644892 -140498882#2"/>
    </vehicle>
    <vehicle id="30592" type="DefaultVehicle" depart="20760.55" departLane="best" departSpeed="max">
        <route edges="-28197508#2 25950000#0"/>
    </vehicle>
    <vehicle id="31320" type="DefaultVehicle" depart="20766.95" departLane="best" departSpeed="max">
        <route edges="-25950000#2 -661400763#2 -8084132#13"/>
    </vehicle>
    <vehicle id="35593" type="DefaultVehicle" depart="20807.22" departLane="best" departSpeed="max">
        <route edges="-28197508#2 -661400763#2 40644892 -140498882#2"/>
    </vehicle>
    <vehicle id="32152" type="DefaultVehicle" depart="20807.66" departLane="best" departSpeed="max">
        <route edges="8084132#13 661400763#0 25950000#0"/>
    </vehicle>
    <vehicle id="35876" type="DefaultVehicle" depart="20824.56" departLane="best" departSpeed="max">
        <route edges="140498882#2 30422501 -69873799#2 28197508#0"/>
    </vehicle>
    <vehicle id="29359" type="DefaultVehicle" depart="20824.93" departLane="best" departSpeed="max">
        <route edges="-28197508#2 -661400763#2 40644892 -140498882#2"/>
    </vehicle>
    <vehicle id="29888" type="DefaultVehicle" depart="20856.63" departLane="best" departSpeed="max">
        <route edges="-25950000#2"/>
    </vehicle>
    <vehicle id="34054" type="DefaultVehicle" depart="20866.14" departLane="best" departSpeed="max">
        <route edges="8084132#13 661400763#0 25950000#0"/>
    </vehicle>
    <vehicle id="31027" type="DefaultVehicle" depart="20867.56" departLane="best" departSpeed="max">
        <route edges="-28197508#2 -661400763#2 40644892 -140498882#2"/>
    </vehicle>
    <vehicle id="38076" type="DefaultVehicle" depart="20897.84" departLane="best" departSpeed="max">
        <route edges="-25950000#2 -661400763#2 -8084132#13"/>
    </vehicle>
    <vehicle id="36076" type="DefaultVehicle" depart="20899.71" departLane="best" departSpeed="max">
        <route edges="8084132#13 661400763#0 25950000#0"/>
    </vehicle>
    <vehicle id="37849" type="DefaultVehicle" depart="20906.16" departLane="best" departSpeed="max">
        <route edges="-25950000#2 -661400763#2 -8084132#13"/>
    </vehicle>
    <vehicle id="38804" type="DefaultVehicle" depart="20919.41" departLane="best" departSpeed="max">
        <route edges="-25950000#2 28197508#0"/>
    </vehicle>
    <vehicle id="34024" type="DefaultVehicle" depart="20921.54" departLane="best" departSpeed="max">
        <route edges="8084132#13 40644892 -140498882#2"/>
    </vehicle>
    <vehicle id="37217" type="DefaultVehicle" depart="20933.67" departLane="best" departSpeed="max">
        <route edges="8084132#13 661400763#0 25950000#0"/>
    </vehicle>
    <vehicle id="34423" type="DefaultVehicle" depart="20949.68" departLane="best" departSpeed="max">
        <route edges="-28197508#2 -661400763#2 40644892 -140498882#2"/>
    </vehicle>
    <vehicle id="37921" type="DefaultVehicle" depart="20952.22" departLane="best" departSpeed="max">
        <route edges="-28197508#2 -661400763#2 40644892 -140498882#2"/>
    </vehicle>
    <vehicle id="36641" type="DefaultVehicle" depart="20955.34" departLane="best" departSpeed="max">
        <route edges="8084132#13 661400763#0 25950000#0"/>
    </vehicle>
    <vehicle id="34495" type="DefaultVehicle" depart="20958.05" departLane="best" departSpeed="max">
        <route edges="-28197508#2 -661400763#2 40644892 -140498882#2"/>
    </vehicle>
    <vehicle id="38457" type="DefaultVehicle" depart="20965.65" departLane="best" departSpeed="max">
        <route edges="8084132#13 661400763#0 25950000#0"/>
    </vehicle>
    <vehicle id="39448" type="DefaultVehicle" depart="21010.56" departLane="best" departSpeed="max">
        <route edges="-25950000#2 28197508#0"/>
    </vehicle>
    <vehicle id="32409" type="DefaultVehicle" depart="21016.37" departLane="best" departSpeed="max">
        <route edges="8084132#13 661400763#0 28197508#0"/>
    </vehicle>
    <vehicle id="36626" type="DefaultVehicle" depart="21047.44" departLane="best" departSpeed="max">
        <route edges="8084132#13 661400763#0 28197508#0"/>
    </vehicle>