<?xml version="1.0" encoding="UTF-8"?>
<configuration xmlns:xsi="http://www.w3.org/2001/XMLSchema-instance" xsi:noNamespaceSchemaLocation="http://sumo.dlr.de/xsd/sumoConfiguration.xsd">
    <input>
        <net-file value="grid2x2.net.xml"/>
        <route-files value="eval_generated.rou.xml"/>
    </input>
    <time>
        <begin value="0"/>
        <end value="7200"/>
    </time>
    <processing>
        <time-to-teleport value="-1"/>
        <time-to-teleport.highways value="-1"/>
        <time-to-teleport.disconnected value="-1"/>
        <time-to-teleport.remove value="false"/>
        <max-depart-delay value="-1"/>
        <ignore-junction-blocker value="-1"/>
        <ignore-route-errors value="true"/>
        <collision.action value="none"/>
        <collision.check-junctions value="false"/>
        <collision.mingap-factor value="0"/>
        <lanechange.duration value="10"/>
        <eager-insert value="true"/>
        <emergencydecel.warning-threshold value="0"/>
    </processing>
    <report>
        <verbose value="false"/>
        <no-step-log value="true"/>
        <no-warnings value="true"/>
    </report>
</configuration>
