<?xml version="1.0" encoding="UTF-8"?>
<!-- Auto-generated Traffic Pattern Library -->
<!-- Total Duration: 7200s (2.0 hours) -->
<!-- Network: grid2x2.net.xml -->
<routes>
    <vType id="passenger" accel="0.8" decel="4.5" length="5.0" minGap="2.5" maxSpeed="13.89" vClass="passenger" speedFactor="1.0" speedDev="0.1" jmIgnoreJunctionFoeProb="1.0" jmIgnoreKeepClearTime="-1" />

    <route id="route_0" edges="A0A1 A1B1" />
    <route id="route_1" edges="A0A1 A1top0" />
    <route id="route_2" edges="A0A1 A1top0" />
    <route id="route_3" edges="A0A1 A1left1" />
    <route id="route_4" edges="A0A1 A1A0" />
    <route id="route_5" edges="A0B0 B0bottom1" />
    <route id="route_6" edges="A0B0 B0right0" />
    <route id="route_7" edges="A0B0 B0right0" />
    <route id="route_8" edges="A0B0 B0B1" />
    <route id="route_9" edges="A0B0 B0A0" />
    <route id="route_10" edges="A0bottom0 bottom0A0" />
    <route id="route_11" edges="A0left0 left0A0" />
    <route id="route_12" edges="A1A0 A0left0" />
    <route id="route_13" edges="A1A0 A0bottom0" />
    <route id="route_14" edges="A1A0 A0bottom0" />
    <route id="route_15" edges="A1A0 A0B0" />
    <route id="route_16" edges="A1A0 A0A1" />
    <route id="route_17" edges="A1B1 B1B0" />
    <route id="route_18" edges="A1B1 B1right1" />
    <route id="route_19" edges="A1B1 B1right1" />
    <route id="route_20" edges="A1B1 B1top1" />
    <route id="route_21" edges="A1B1 B1A1" />
    <route id="route_22" edges="A1left1 left1A1" />
    <route id="route_23" edges="A1top0 top0A1" />
    <route id="route_24" edges="B0A0 A0A1" />
    <route id="route_25" edges="B0A0 A0left0" />
    <route id="route_26" edges="B0A0 A0left0" />
    <route id="route_27" edges="B0A0 A0bottom0" />
    <route id="route_28" edges="B0A0 A0B0" />
    <route id="route_29" edges="B0B1 B1right1" />
    <route id="route_30" edges="B0B1 B1top1" />
    <route id="route_31" edges="B0B1 B1top1" />
    <route id="route_32" edges="B0B1 B1A1" />
    <route id="route_33" edges="B0B1 B1B0" />
    <route id="route_34" edges="B0bottom1 bottom1B0" />
    <route id="route_35" edges="B0right0 right0B0" />
    <route id="route_36" edges="B1A1 A1top0" />
    <route id="route_37" edges="B1A1 A1left1" />
    <route id="route_38" edges="B1A1 A1left1" />
    <route id="route_39" edges="B1A1 A1A0" />
    <route id="route_40" edges="B1A1 A1B1" />
    <route id="route_41" edges="B1B0 B0A0" />
    <route id="route_42" edges="B1B0 B0bottom1" />
    <route id="route_43" edges="B1B0 B0bottom1" />
    <route id="route_44" edges="B1B0 B0right0" />
    <route id="route_45" edges="B1B0 B0B1" />
    <route id="route_46" edges="B1right1 right1B1" />
    <route id="route_47" edges="B1top1 top1B1" />
    <route id="route_48" edges="bottom0A0 A0B0" />
    <route id="route_49" edges="bottom0A0 A0A1" />
    <route id="route_50" edges="bottom0A0 A0A1" />
    <route id="route_51" edges="bottom0A0 A0left0" />
    <route id="route_52" edges="bottom0A0 A0bottom0" />
    <route id="route_53" edges="bottom1B0 B0right0" />
    <route id="route_54" edges="bottom1B0 B0B1" />
    <route id="route_55" edges="bottom1B0 B0B1" />
    <route id="route_56" edges="bottom1B0 B0A0" />
    <route id="route_57" edges="bottom1B0 B0bottom1" />
    <route id="route_58" edges="left0A0 A0bottom0" />
    <route id="route_59" edges="left0A0 A0B0" />
    <route id="route_60" edges="left0A0 A0B0" />
    <route id="route_61" edges="left0A0 A0A1" />
    <route id="route_62" edges="left0A0 A0left0" />
    <route id="route_63" edges="left1A1 A1A0" />
    <route id="route_64" edges="left1A1 A1B1" />
    <route id="route_65" edges="left1A1 A1B1" />
    <route id="route_66" edges="left1A1 A1top0" />
    <route id="route_67" edges="left1A1 A1left1" />
    <route id="route_68" edges="right0B0 B0B1" />
    <route id="route_69" edges="right0B0 B0A0" />
    <route id="route_70" edges="right0B0 B0A0" />
    <route id="route_71" edges="right0B0 B0bottom1" />
    <route id="route_72" edges="right0B0 B0right0" />
    <route id="route_73" edges="right1B1 B1top1" />
    <route id="route_74" edges="right1B1 B1A1" />
    <route id="route_75" edges="right1B1 B1A1" />
    <route id="route_76" edges="right1B1 B1B0" />
    <route id="route_77" edges="right1B1 B1right1" />
    <route id="route_78" edges="top0A1 A1left1" />
    <route id="route_79" edges="top0A1 A1A0" />
    <route id="route_80" edges="top0A1 A1A0" />
    <route id="route_81" edges="top0A1 A1B1" />
    <route id="route_82" edges="top0A1 A1top0" />
    <route id="route_83" edges="top1B1 B1A1" />
    <route id="route_84" edges="top1B1 B1B0" />
    <route id="route_85" edges="top1B1 B1B0" />
    <route id="route_86" edges="top1B1 B1right1" />
    <route id="route_87" edges="top1B1 B1top1" />


    <!-- Segment 1: BALANCED (DIR_A=1.0x DIR_B=1.0x DIR_C=1.0x DIR_D=1.0x DIR_E=1.0x DIR_F=1.0x DIR_G=1.0x DIR_H=1.0x DIR_I=1.0x DIR_J=1.0x DIR_K=1.0x DIR_L=1.0x DIR_M=1.0x DIR_N=1.0x DIR_O=1.0x DIR_P=1.0x DIR_Q=1.0x DIR_R=1.0x DIR_S=1.0x DIR_T=1.0x DIR_U=1.0x DIR_V=1.0x DIR_W=1.0x DIR_X=1.0x) | 0-600s -->
    <vehicle id="veh_0" type="passenger" route="route_6" depart="0.68" />
    <vehicle id="veh_1" type="passenger" route="route_50" depart="1.61" />
    <vehicle id="veh_2" type="passenger" route="route_11" depart="1.91" />
    <vehicle id="veh_3" type="passenger" route="route_28" depart="2.64" />
    <vehicle id="veh_4" type="passenger" route="route_74" depart="3.35" />
    <vehicle id="veh_5" type="passenger" route="route_87" depart="3.39" />
    <vehicle id="veh_6" type="passenger" route="route_23" depart="3.49" />
    <vehicle id="veh_7" type="passenger" route="route_61" depart="3.87" />
    <vehicle id="veh_8" type="passenger" route="route_77" depart="4.00" />
    <vehicle id="veh_9" type="passenger" route="route_19" depart="5.91" />
    <vehicle id="veh_10" type="passenger" route="route_6" depart="6.36" />
    <vehicle id="veh_11" type="passenger" route="route_18" depart="6.37" />
    <vehicle id="veh_12" type="passenger" route="route_43" depart="7.94" />
    <vehicle id="veh_13" type="passenger" route="route_59" depart="8.04" />
    <vehicle id="veh_14" type="passenger" route="route_78" depart="8.12" />
    <vehicle id="veh_15" type="passenger" route="route_80" depart="8.48" />
    <vehicle id="veh_16" type="passenger" route="route_60" depart="8.76" />
    <vehicle id="veh_17" type="passenger" route="route_11" depart="9.37" />
    <vehicle id="veh_18" type="passenger" route="route_41" depart="9.85" />
    <vehicle id="veh_19" type="passenger" route="route_21" depart="10.47" />
    <vehicle id="veh_20" type="passenger" route="route_74" depart="10.53" />
    <vehicle id="veh_21" type="passenger" route="route_70" depart="10.64" />
    <vehicle id="veh_22" type="passenger" route="route_43" depart="10.79" />
    <vehicle id="veh_23" type="passenger" route="route_68" depart="10.81" />
    <vehicle id="veh_24" type="passenger" route="route_9" depart="11.08" />
    <vehicle id="veh_25" type="passenger" route="route_49" depart="12.18" />
    <vehicle id="veh_26" type="passenger" route="route_19" depart="12.27" />
    <vehicle id="veh_27" type="passenger" route="route_18" depart="12.98" />
    <vehicle id="veh_28" type="passenger" route="route_25" depart="13.31" />
    <vehicle id="veh_29" type="passenger" route="route_52" depart="13.44" />
    <vehicle id="veh_30" type="passenger" route="route_79" depart="14.32" />
    <vehicle id="veh_31" type="passenger" route="route_2" depart="16.66" />
    <vehicle id="veh_32" type="passenger" route="route_68" depart="16.99" />
    <vehicle id="veh_33" type="passenger" route="route_75" depart="17.37" />
    <vehicle id="veh_34" type="passenger" route="route_4" depart="19.19" />
    <vehicle id="veh_35" type="passenger" route="route_26" depart="19.40" />
    <vehicle id="veh_36" type="passenger" route="route_4" depart="20.06" />
    <vehicle id="veh_37" type="passenger" route="route_80" depart="20.50" />
    <vehicle id="veh_38" type="passenger" route="route_40" depart="20.52" />
    <vehicle id="veh_39" type="passenger" route="route_80" depart="21.21" />
    <vehicle id="veh_40" type="passenger" route="route_22" depart="21.69" />
    <vehicle id="veh_41" type="passenger" route="route_71" depart="21.73" />
    <vehicle id="veh_42" type="passenger" route="route_43" depart="21.78" />
    <vehicle id="veh_43" type="passenger" route="route_70" depart="21.85" />
    <vehicle id="veh_44" type="passenger" route="route_40" depart="22.08" />
    <vehicle id="veh_45" type="passenger" route="route_85" depart="22.10" />
    <vehicle id="veh_46" type="passenger" route="route_9" depart="22.53" />
    <vehicle id="veh_47" type="passenger" route="route_39" depart="22.69" />
    <vehicle id="veh_48" type="passenger" route="route_75" depart="24.90" />
    <vehicle id="veh_49" type="passenger" route="route_84" depart="25.30" />
    <vehicle id="veh_50" type="passenger" route="route_19" depart="25.71" />
    <vehicle id="veh_51" type="passenger" route="route_43" depart="25.73" />
    <vehicle id="veh_52" type="passenger" route="route_34" depart="26.61" />
    <vehicle id="veh_53" type="passenger" route="route_30" depart="26.88" />
    <vehicle id="veh_54" type="passenger" route="route_30" depart="27.30" />
    <vehicle id="veh_55" type="passenger" route="route_38" depart="28.01" />
    <vehicle id="veh_56" type="passenger" route="route_1" depart="28.20" />
    <vehicle id="veh_57" type="passenger" route="route_80" depart="28.78" />
    <vehicle id="veh_58" type="passenger" route="route_43" depart="29.50" />
    <vehicle id="veh_59" type="passenger" route="route_25" depart="30.10" />
    <vehicle id="veh_60" type="passenger" route="route_63" depart="30.33" />
    <vehicle id="veh_61" type="passenger" route="route_2" depart="30.52" />
    <vehicle id="veh_62" type="passenger" route="route_23" depart="30.73" />
    <vehicle id="veh_63" type="passenger" route="route_28" depart="31.36" />
    <vehicle id="veh_64" type="passenger" route="route_59" depart="32.18" />
    <vehicle id="veh_65" type="passenger" route="route_2" depart="32.69" />
    <vehicle id="veh_66" type="passenger" route="route_64" depart="33.35" />
    <vehicle id="veh_67" type="passenger" route="route_50" depart="33.76" />
    <vehicle id="veh_68" type="passenger" route="route_45" depart="33.92" />
    <vehicle id="veh_69" type="passenger" route="route_64" depart="35.50" />
    <vehicle id="veh_70" type="passenger" route="route_64" depart="35.58" />
    <vehicle id="veh_71" type="passenger" route="route_75" depart="37.03" />
    <vehicle id="veh_72" type="passenger" route="route_9" depart="37.67" />
    <vehicle id="veh_73" type="passenger" route="route_28" depart="37.81" />
    <vehicle id="veh_74" type="passenger" route="route_54" depart="38.03" />
    <vehicle id="veh_75" type="passenger" route="route_11" depart="38.97" />
    <vehicle id="veh_76" type="passenger" route="route_41" depart="39.91" />
    <vehicle id="veh_77" type="passenger" route="route_15" depart="40.56" />
    <vehicle id="veh_78" type="passenger" route="route_23" depart="41.23" />
    <vehicle id="veh_79" type="passenger" route="route_65" depart="41.29" />
    <vehicle id="veh_80" type="passenger" route="route_65" depart="41.54" />
    <vehicle id="veh_81" type="passenger" route="route_80" depart="41.62" />
    <vehicle id="veh_82" type="passenger" route="route_70" depart="41.85" />
    <vehicle id="veh_83" type="passenger" route="route_54" depart="42.10" />
    <vehicle id="veh_84" type="passenger" route="route_13" depart="42.13" />
    <vehicle id="veh_85" type="passenger" route="route_33" depart="42.56" />
    <vehicle id="veh_86" type="passenger" route="route_50" depart="43.62" />
    <vehicle id="veh_87" type="passenger" route="route_18" depart="43.76" />
    <vehicle id="veh_88" type="passenger" route="route_62" depart="44.65" />
    <vehicle id="veh_89" type="passenger" route="route_31" depart="45.52" />
    <vehicle id="veh_90" type="passenger" route="route_34" depart="45.59" />
    <vehicle id="veh_91" type="passenger" route="route_79" depart="45.67" />
    <vehicle id="veh_92" type="passenger" route="route_45" depart="45.74" />
    <vehicle id="veh_93" type="passenger" route="route_5" depart="46.21" />
    <vehicle id="veh_94" type="passenger" route="route_37" depart="46.56" />
    <vehicle id="veh_95" type="passenger" route="route_31" depart="47.94" />
    <vehicle id="veh_96" type="passenger" route="route_70" depart="48.19" />
    <vehicle id="veh_97" type="passenger" route="route_19" depart="49.22" />
    <vehicle id="veh_98" type="passenger" route="route_34" depart="49.33" />
    <vehicle id="veh_99" type="passenger" route="route_62" depart="50.54" />
    <vehicle id="veh_100" type="passenger" route="route_87" depart="50.84" />
    <vehicle id="veh_101" type="passenger" route="route_14" depart="51.33" />
    <vehicle id="veh_102" type="passenger" route="route_25" depart="51.33" />
    <vehicle id="veh_103" type="passenger" route="route_1" depart="51.84" />
    <vehicle id="veh_104" type="passenger" route="route_43" depart="52.21" />
    <vehicle id="veh_105" type="passenger" route="route_54" depart="52.38" />
    <vehicle id="veh_106" type="passenger" route="route_26" depart="52.94" />
    <vehicle id="veh_107" type="passenger" route="route_87" depart="53.17" />
    <vehicle id="veh_108" type="passenger" route="route_26" depart="53.63" />
    <vehicle id="veh_109" type="passenger" route="route_25" depart="53.68" />
    <vehicle id="veh_110" type="passenger" route="route_83" depart="53.84" />
    <vehicle id="veh_111" type="passenger" route="route_40" depart="54.31" />
    <vehicle id="veh_112" type="passenger" route="route_6" depart="55.17" />
    <vehicle id="veh_113" type="passenger" route="route_74" depart="55.76" />
    <vehicle id="veh_114" type="passenger" route="route_14" depart="55.89" />
    <vehicle id="veh_115" type="passenger" route="route_54" depart="55.97" />
    <vehicle id="veh_116" type="passenger" route="route_84" depart="56.08" />
    <vehicle id="veh_117" type="passenger" route="route_6" depart="56.34" />
    <vehicle id="veh_118" type="passenger" route="route_7" depart="56.47" />
    <vehicle id="veh_119" type="passenger" route="route_1" depart="56.60" />
    <vehicle id="veh_120" type="passenger" route="route_73" depart="57.79" />
    <vehicle id="veh_121" type="passenger" route="route_25" depart="57.90" />
    <vehicle id="veh_122" type="passenger" route="route_58" depart="58.16" />
    <vehicle id="veh_123" type="passenger" route="route_45" depart="58.58" />
    <vehicle id="veh_124" type="passenger" route="route_69" depart="58.79" />
    <vehicle id="veh_125" type="passenger" route="route_52" depart="59.12" />
    <vehicle id="veh_126" type="passenger" route="route_25" depart="59.74" />
    <vehicle id="veh_127" type="passenger" route="route_79" depart="59.94" />
    <vehicle id="veh_128" type="passenger" route="route_8" depart="60.55" />
    <vehicle id="veh_129" type="passenger" route="route_80" depart="60.63" />
    <vehicle id="veh_130" type="passenger" route="route_35" depart="61.07" />
    <vehicle id="veh_131" type="passenger" route="route_83" depart="61.10" />
    <vehicle id="veh_132" type="passenger" route="route_77" depart="61.36" />
    <vehicle id="veh_133" type="passenger" route="route_67" depart="62.94" />
    <vehicle id="veh_134" type="passenger" route="route_38" depart="63.10" />
    <vehicle id="veh_135" type="passenger" route="route_19" depart="63.43" />
    <vehicle id="veh_136" type="passenger" route="route_62" depart="64.40" />
    <vehicle id="veh_137" type="passenger" route="route_54" depart="64.72" />
    <vehicle id="veh_138" type="passenger" route="route_84" depart="64.78" />
    <vehicle id="veh_139" type="passenger" route="route_65" depart="65.09" />
    <vehicle id="veh_140" type="passenger" route="route_8" depart="65.19" />
    <vehicle id="veh_141" type="passenger" route="route_52" depart="65.32" />
    <vehicle id="veh_142" type="passenger" route="route_16" depart="65.60" />
    <vehicle id="veh_143" type="passenger" route="route_18" depart="65.77" />
    <vehicle id="veh_144" type="passenger" route="route_26" depart="65.89" />
    <vehicle id="veh_145" type="passenger" route="route_47" depart="65.93" />
    <vehicle id="veh_146" type="passenger" route="route_50" depart="66.94" />
    <vehicle id="veh_147" type="passenger" route="route_50" depart="67.34" />
    <vehicle id="veh_148" type="passenger" route="route_48" depart="67.35" />
    <vehicle id="veh_149" type="passenger" route="route_18" depart="67.46" />
    <vehicle id="veh_150" type="passenger" route="route_70" depart="67.55" />
    <vehicle id="veh_151" type="passenger" route="route_80" depart="67.63" />
    <vehicle id="veh_152" type="passenger" route="route_38" depart="68.31" />
    <vehicle id="veh_153" type="passenger" route="route_79" depart="68.43" />
    <vehicle id="veh_154" type="passenger" route="route_67" depart="68.64" />
    <vehicle id="veh_155" type="passenger" route="route_46" depart="68.65" />
    <vehicle id="veh_156" type="passenger" route="route_36" depart="68.70" />
    <vehicle id="veh_157" type="passenger" route="route_3" depart="68.99" />
    <vehicle id="veh_158" type="passenger" route="route_40" depart="69.07" />
    <vehicle id="veh_159" type="passenger" route="route_52" depart="69.99" />
    <vehicle id="veh_160" type="passenger" route="route_7" depart="70.81" />
    <vehicle id="veh_161" type="passenger" route="route_50" depart="71.14" />
    <vehicle id="veh_162" type="passenger" route="route_34" depart="71.36" />
    <vehicle id="veh_163" type="passenger" route="route_62" depart="71.56" />
    <vehicle id="veh_164" type="passenger" route="route_87" depart="71.64" />
    <vehicle id="veh_165" type="passenger" route="route_59" depart="71.98" />
    <vehicle id="veh_166" type="passenger" route="route_19" depart="72.17" />
    <vehicle id="veh_167" type="passenger" route="route_74" depart="72.73" />
    <vehicle id="veh_168" type="passenger" route="route_2" depart="72.77" />
    <vehicle id="veh_169" type="passenger" route="route_49" depart="73.27" />
    <vehicle id="veh_170" type="passenger" route="route_38" depart="73.30" />
    <vehicle id="veh_171" type="passenger" route="route_50" depart="73.43" />
    <vehicle id="veh_172" type="passenger" route="route_29" depart="74.46" />
    <vehicle id="veh_173" type="passenger" route="route_20" depart="74.97" />
    <vehicle id="veh_174" type="passenger" route="route_65" depart="75.00" />
    <vehicle id="veh_175" type="passenger" route="route_70" depart="75.09" />
    <vehicle id="veh_176" type="passenger" route="route_42" depart="75.74" />
    <vehicle id="veh_177" type="passenger" route="route_59" depart="76.68" />
    <vehicle id="veh_178" type="passenger" route="route_45" depart="76.98" />
    <vehicle id="veh_179" type="passenger" route="route_26" depart="78.50" />
    <vehicle id="veh_180" type="passenger" route="route_33" depart="78.93" />
    <vehicle id="veh_181" type="passenger" route="route_37" depart="78.97" />
    <vehicle id="veh_182" type="passenger" route="route_18" depart="78.97" />
    <vehicle id="veh_183" type="passenger" route="route_74" depart="78.98" />
    <vehicle id="veh_184" type="passenger" route="route_52" depart="79.73" />
    <vehicle id="veh_185" type="passenger" route="route_60" depart="80.29" />
    <vehicle id="veh_186" type="passenger" route="route_6" depart="80.86" />
    <vehicle id="veh_187" type="passenger" route="route_9" depart="80.96" />
    <vehicle id="veh_188" type="passenger" route="route_19" depart="81.34" />
    <vehicle id="veh_189" type="passenger" route="route_26" depart="81.40" />
    <vehicle id="veh_190" type="passenger" route="route_0" depart="81.91" />
    <vehicle id="veh_191" type="passenger" route="route_36" depart="82.44" />
    <vehicle id="veh_192" type="passenger" route="route_75" depart="82.80" />
    <vehicle id="veh_193" type="passenger" route="route_7" depart="82.80" />
    <vehicle id="veh_194" type="passenger" route="route_1" depart="83.10" />
    <vehicle id="veh_195" type="passenger" route="route_87" depart="83.20" />
    <vehicle id="veh_196" type="passenger" route="route_38" depart="83.25" />
    <vehicle id="veh_197" type="passenger" route="route_37" depart="83.53" />
    <vehicle id="veh_198" type="passenger" route="route_23" depart="84.77" />
    <vehicle id="veh_199" type="passenger" route="route_68" depart="85.18" />
    <vehicle id="veh_200" type="passenger" route="route_32" depart="85.20" />
    <vehicle id="veh_201" type="passenger" route="route_70" depart="85.22" />
    <vehicle id="veh_202" type="passenger" route="route_5" depart="85.44" />
    <vehicle id="veh_203" type="passenger" route="route_29" depart="87.33" />
    <vehicle id="veh_204" type="passenger" route="route_87" depart="87.41" />
    <vehicle id="veh_205" type="passenger" route="route_46" depart="87.49" />
    <vehicle id="veh_206" type="passenger" route="route_18" depart="87.64" />
    <vehicle id="veh_207" type="passenger" route="route_6" depart="87.82" />
    <vehicle id="veh_208" type="passenger" route="route_82" depart="87.88" />
    <vehicle id="veh_209" type="passenger" route="route_35" depart="88.26" />
    <vehicle id="veh_210" type="passenger" route="route_65" depart="88.57" />
    <vehicle id="veh_211" type="passenger" route="route_74" depart="88.80" />
    <vehicle id="veh_212" type="passenger" route="route_0" depart="89.45" />
    <vehicle id="veh_213" type="passenger" route="route_40" depart="90.23" />
    <vehicle id="veh_214" type="passenger" route="route_82" depart="90.94" />
    <vehicle id="veh_215" type="passenger" route="route_31" depart="90.96" />
    <vehicle id="veh_216" type="passenger" route="route_79" depart="91.03" />
    <vehicle id="veh_217" type="passenger" route="route_43" depart="91.22" />
    <vehicle id="veh_218" type="passenger" route="route_9" depart="91.41" />
    <vehicle id="veh_219" type="passenger" route="route_64" depart="91.62" />
    <vehicle id="veh_220" type="passenger" route="route_60" depart="92.16" />
    <vehicle id="veh_221" type="passenger" route="route_56" depart="92.21" />
    <vehicle id="veh_222" type="passenger" route="route_26" depart="92.86" />
    <vehicle id="veh_223" type="passenger" route="route_25" depart="92.91" />
    <vehicle id="veh_224" type="passenger" route="route_35" depart="92.94" />
    <vehicle id="veh_225" type="passenger" route="route_55" depart="93.18" />
    <vehicle id="veh_226" type="passenger" route="route_59" depart="93.30" />
    <vehicle id="veh_227" type="passenger" route="route_16" depart="93.30" />
    <vehicle id="veh_228" type="passenger" route="route_16" depart="93.61" />
    <vehicle id="veh_229" type="passenger" route="route_13" depart="94.11" />
    <vehicle id="veh_230" type="passenger" route="route_43" depart="94.22" />
    <vehicle id="veh_231" type="passenger" route="route_50" depart="94.31" />
    <vehicle id="veh_232" type="passenger" route="route_11" depart="95.09" />
    <vehicle id="veh_233" type="passenger" route="route_7" depart="95.13" />
    <vehicle id="veh_234" type="passenger" route="route_28" depart="95.53" />
    <vehicle id="veh_235" type="passenger" route="route_45" depart="95.83" />
    <vehicle id="veh_236" type="passenger" route="route_4" depart="96.46" />
    <vehicle id="veh_237" type="passenger" route="route_56" depart="96.74" />
    <vehicle id="veh_238" type="passenger" route="route_82" depart="97.23" />
    <vehicle id="veh_239" type="passenger" route="route_85" depart="97.73" />
    <vehicle id="veh_240" type="passenger" route="route_37" depart="97.97" />
    <vehicle id="veh_241" type="passenger" route="route_29" depart="98.67" />
    <vehicle id="veh_242" type="passenger" route="route_6" depart="99.54" />
    <vehicle id="veh_243" type="passenger" route="route_64" depart="100.39" />
    <vehicle id="veh_244" type="passenger" route="route_61" depart="100.50" />
    <vehicle id="veh_245" type="passenger" route="route_49" depart="100.66" />
    <vehicle id="veh_246" type="passenger" route="route_8" depart="100.95" />
    <vehicle id="veh_247" type="passenger" route="route_67" depart="102.19" />
    <vehicle id="veh_248" type="passenger" route="route_34" depart="102.34" />
    <vehicle id="veh_249" type="passenger" route="route_57" depart="102.49" />
    <vehicle id="veh_250" type="passenger" route="route_75" depart="102.75" />
    <vehicle id="veh_251" type="passenger" route="route_16" depart="102.93" />
    <vehicle id="veh_252" type="passenger" route="route_49" depart="103.74" />
    <vehicle id="veh_253" type="passenger" route="route_6" depart="104.77" />
    <vehicle id="veh_254" type="passenger" route="route_19" depart="104.78" />
    <vehicle id="veh_255" type="passenger" route="route_11" depart="104.85" />
    <vehicle id="veh_256" type="passenger" route="route_35" depart="105.03" />
    <vehicle id="veh_257" type="passenger" route="route_71" depart="105.34" />
    <vehicle id="veh_258" type="passenger" route="route_54" depart="105.69" />
    <vehicle id="veh_259" type="passenger" route="route_1" depart="105.96" />
    <vehicle id="veh_260" type="passenger" route="route_72" depart="106.07" />
    <vehicle id="veh_261" type="passenger" route="route_19" depart="106.34" />
    <vehicle id="veh_262" type="passenger" route="route_14" depart="107.98" />
    <vehicle id="veh_263" type="passenger" route="route_54" depart="108.31" />
    <vehicle id="veh_264" type="passenger" route="route_44" depart="108.79" />
    <vehicle id="veh_265" type="passenger" route="route_80" depart="108.96" />
    <vehicle id="veh_266" type="passenger" route="route_42" depart="109.14" />
    <vehicle id="veh_267" type="passenger" route="route_1" depart="109.25" />
    <vehicle id="veh_268" type="passenger" route="route_81" depart="109.28" />
    <vehicle id="veh_269" type="passenger" route="route_74" depart="110.31" />
    <vehicle id="veh_270" type="passenger" route="route_9" depart="110.70" />
    <vehicle id="veh_271" type="passenger" route="route_2" depart="110.86" />
    <vehicle id="veh_272" type="passenger" route="route_3" depart="111.35" />
    <vehicle id="veh_273" type="passenger" route="route_36" depart="111.73" />
    <vehicle id="veh_274" type="passenger" route="route_43" depart="111.77" />
    <vehicle id="veh_275" type="passenger" route="route_47" depart="111.96" />
    <vehicle id="veh_276" type="passenger" route="route_82" depart="112.22" />
    <vehicle id="veh_277" type="passenger" route="route_60" depart="112.48" />
    <vehicle id="veh_278" type="passenger" route="route_60" depart="112.56" />
    <vehicle id="veh_279" type="passenger" route="route_13" depart="113.79" />
    <vehicle id="veh_280" type="passenger" route="route_1" depart="114.08" />
    <vehicle id="veh_281" type="passenger" route="route_41" depart="115.63" />
    <vehicle id="veh_282" type="passenger" route="route_7" depart="116.98" />
    <vehicle id="veh_283" type="passenger" route="route_25" depart="117.03" />
    <vehicle id="veh_284" type="passenger" route="route_47" depart="117.45" />
    <vehicle id="veh_285" type="passenger" route="route_25" depart="118.80" />
    <vehicle id="veh_286" type="passenger" route="route_75" depart="118.89" />
    <vehicle id="veh_287" type="passenger" route="route_19" depart="118.94" />
    <vehicle id="veh_288" type="passenger" route="route_2" depart="118.97" />
    <vehicle id="veh_289" type="passenger" route="route_26" depart="119.96" />
    <vehicle id="veh_290" type="passenger" route="route_7" depart="120.25" />
    <vehicle id="veh_291" type="passenger" route="route_22" depart="120.80" />
    <vehicle id="veh_292" type="passenger" route="route_45" depart="121.37" />
    <vehicle id="veh_293" type="passenger" route="route_25" depart="122.37" />
    <vehicle id="veh_294" type="passenger" route="route_11" depart="122.40" />
    <vehicle id="veh_295" type="passenger" route="route_6" depart="122.44" />
    <vehicle id="veh_296" type="passenger" route="route_36" depart="122.65" />
    <vehicle id="veh_297" type="passenger" route="route_61" depart="122.67" />
    <vehicle id="veh_298" type="passenger" route="route_2" depart="123.67" />
    <vehicle id="veh_299" type="passenger" route="route_77" depart="123.96" />
    <vehicle id="veh_300" type="passenger" route="route_10" depart="124.45" />
    <vehicle id="veh_301" type="passenger" route="route_13" depart="124.67" />
    <vehicle id="veh_302" type="passenger" route="route_13" depart="126.36" />
    <vehicle id="veh_303" type="passenger" route="route_49" depart="126.68" />
    <vehicle id="veh_304" type="passenger" route="route_8" depart="127.06" />
    <vehicle id="veh_305" type="passenger" route="route_21" depart="127.13" />
    <vehicle id="veh_306" type="passenger" route="route_63" depart="127.82" />
    <vehicle id="veh_307" type="passenger" route="route_71" depart="129.21" />
    <vehicle id="veh_308" type="passenger" route="route_70" depart="129.36" />
    <vehicle id="veh_309" type="passenger" route="route_47" depart="129.70" />
    <vehicle id="veh_310" type="passenger" route="route_80" depart="130.46" />
    <vehicle id="veh_311" type="passenger" route="route_59" depart="130.55" />
    <vehicle id="veh_312" type="passenger" route="route_66" depart="131.00" />
    <vehicle id="veh_313" type="passenger" route="route_46" depart="131.27" />
    <vehicle id="veh_314" type="passenger" route="route_79" depart="132.37" />
    <vehicle id="veh_315" type="passenger" route="route_29" depart="132.50" />
    <vehicle id="veh_316" type="passenger" route="route_1" depart="133.50" />
    <vehicle id="veh_317" type="passenger" route="route_8" depart="134.61" />
    <vehicle id="veh_318" type="passenger" route="route_1" depart="134.89" />
    <vehicle id="veh_319" type="passenger" route="route_75" depart="134.94" />
    <vehicle id="veh_320" type="passenger" route="route_53" depart="135.79" />