<?xml version="1.0" encoding="UTF-8"?>
<!-- Auto-generated Traffic Pattern Library -->
<!-- Total Duration: 13500s (3.8 hours) -->
<!-- Network: grid3x3_tls.net.xml -->
<routes>
    <vType id="passenger" accel="0.8" decel="4.5" length="5.0" minGap="2.5" maxSpeed="13.89" vClass="passenger" speedFactor="1.0" speedDev="0.1" jmIgnoreJunctionFoeProb="1.0" jmIgnoreKeepClearTime="-1" />

    <route id="route_0" edges="A0A1 A1B1" />
    <route id="route_1" edges="A0A1 A1top0" />
    <route id="route_2" edges="A0A1 A1top0" />
    <route id="route_3" edges="A0A1 A1left1" />
    <route id="route_4" edges="A0A1 A1A0" />
    <route id="route_5" edges="A0B0 B0bottom1" />
    <route id="route_6" edges="A0B0 B0right0" />
    <route id="route_7" edges="A0B0 B0right0" />
    <route id="route_8" edges="A0B0 B0B1" />
    <route id="route_9" edges="A0B0 B0A0" />
    <route id="route_10" edges="A0bottom0 bottom0A0" />
    <route id="route_11" edges="A0left0 left0A0" />
    <route id="route_12" edges="A1A0 A0left0" />
    <route id="route_13" edges="A1A0 A0bottom0" />
    <route id="route_14" edges="A1A0 A0bottom0" />
    <route id="route_15" edges="A1A0 A0B0" />
    <route id="route_16" edges="A1A0 A0A1" />
    <route id="route_17" edges="A1B1 B1B0" />
    <route id="route_18" edges="A1B1 B1right1" />
    <route id="route_19" edges="A1B1 B1right1" />
    <route id="route_20" edges="A1B1 B1top1" />
    <route id="route_21" edges="A1B1 B1A1" />
    <route id="route_22" edges="A1left1 left1A1" />
    <route id="route_23" edges="A1top0 top0A1" />
    <route id="route_24" edges="B0A0 A0A1" />
    <route id="route_25" edges="B0A0 A0left0" />
    <route id="route_26" edges="B0A0 A0left0" />
    <route id="route_27" edges="B0A0 A0bottom0" />
    <route id="route_28" edges="B0A0 A0B0" />
    <route id="route_29" edges="B0B1 B1right1" />
    <route id="route_30" edges="B0B1 B1top1" />
    <route id="route_31" edges="B0B1 B1top1" />
    <route id="route_32" edges="B0B1 B1A1" />
    <route id="route_33" edges="B0B1 B1B0" />
    <route id="route_34" edges="B0bottom1 bottom1B0" />
    <route id="route_35" edges="B0right0 right0B0" />
    <route id="route_36" edges="B1A1 A1top0" />
    <route id="route_37" edges="B1A1 A1left1" />
    <route id="route_38" edges="B1A1 A1left1" />
    <route id="route_39" edges="B1A1 A1A0" />
    <route id="route_40" edges="B1A1 A1B1" />
    <route id="route_41" edges="B1B0 B0A0" />
    <route id="route_42" edges="B1B0 B0bottom1" />
    <route id="route_43" edges="B1B0 B0bottom1" />
    <route id="route_44" edges="B1B0 B0right0" />
    <route id="route_45" edges="B1B0 B0B1" />
    <route id="route_46" edges="B1right1 right1B1" />
    <route id="route_47" edges="B1top1 top1B1" />
    <route id="route_48" edges="bottom0A0 A0B0" />
    <route id="route_49" edges="bottom0A0 A0A1" />
    <route id="route_50" edges="bottom0A0 A0A1" />
    <route id="route_51" edges="bottom0A0 A0left0" />
    <route id="route_52" edges="bottom0A0 A0bottom0" />
    <route id="route_53" edges="bottom1B0 B0right0" />
    <route id="route_54" edges="bottom1B0 B0B1" />
    <route id="route_55" edges="bottom1B0 B0B1" />
    <route id="route_56" edges="bottom1B0 B0A0" />
    <route id="route_57" edges="bottom1B0 B0bottom1" />
    <route id="route_58" edges="left0A0 A0bottom0" />
    <route id="route_59" edges="left0A0 A0B0" />
    <route id="route_60" edges="left0A0 A0B0" />
    <route id="route_61" edges="left0A0 A0A1" />
    <route id="route_62" edges="left0A0 A0left0" />
    <route id="route_63" edges="left1A1 A1A0" />
    <route id="route_64" edges="left1A1 A1B1" />
    <route id="route_65" edges="left1A1 A1B1" />
    <route id="route_66" edges="left1A1 A1top0" />
    <route id="route_67" edges="left1A1 A1left1" />
    <route id="route_68" edges="right0B0 B0B1" />
    <route id="route_69" edges="right0B0 B0A0" />
    <route id="route_70" edges="right0B0 B0A0" />
    <route id="route_71" edges="right0B0 B0bottom1" />
    <route id="route_72" edges="right0B0 B0right0" />
    <route id="route_73" edges="right1B1 B1top1" />
    <route id="route_74" edges="right1B1 B1A1" />
    <route id="route_75" edges="right1B1 B1A1" />
    <route id="route_76" edges="right1B1 B1B0" />
    <route id="route_77" edges="right1B1 B1right1" />
    <route id="route_78" edges="top0A1 A1left1" />
    <route id="route_79" edges="top0A1 A1A0" />
    <route id="route_80" edges="top0A1 A1A0" />
    <route id="route_81" edges="top0A1 A1B1" />
    <route id="route_82" edges="top0A1 A1top0" />
    <route id="route_83" edges="top1B1 B1A1" />
    <route id="route_84" edges="top1B1 B1B0" />
    <route id="route_85" edges="top1B1 B1B0" />
    <route id="route_86" edges="top1B1 B1right1" />
    <route id="route_87" edges="top1B1 B1top1" />


    <!-- Segment 1: BALANCED (DIR_A=1.0x DIR_B=1.0x DIR_C=1.0x DIR_D=1.0x DIR_E=1.0x DIR_F=1.0x DIR_G=1.0x DIR_H=1.0x DIR_I=1.0x DIR_J=1.0x DIR_K=1.0x DIR_L=1.0x DIR_M=1.0x DIR_N=1.0x DIR_O=1.0x DIR_P=1.0x DIR_Q=1.0x DIR_R=1.0x DIR_S=1.0x DIR_T=1.0x DIR_U=1.0x DIR_V=1.0x DIR_W=1.0x DIR_X=1.0x) | 0-900s -->
    <vehicle id="veh_0" type="passenger" route="route_1" depart="0.46" />
    <vehicle id="veh_1" type="passenger" route="route_19" depart="0.60" />
    <vehicle id="veh_2" type="passenger" route="route_59" depart="1.20" />
    <vehicle id="veh_3" type="passenger" route="route_7" depart="2.21" />
    <vehicle id="veh_4" type="passenger" route="route_2" depart="2.45" />
    <vehicle id="veh_5" type="passenger" route="route_43" depart="2.56" />
    <vehicle id="veh_6" type="passenger" route="route_17" depart="2.58" />
    <vehicle id="veh_7" type="passenger" route="route_48" depart="3.05" />
    <vehicle id="veh_8" type="passenger" route="route_52" depart="3.16" />
    <vehicle id="veh_9" type="passenger" route="route_0" depart="3.91" />
    <vehicle id="veh_10" type="passenger" route="route_61" depart="4.64" />
    <vehicle id="veh_11" type="passenger" route="route_13" depart="4.83" />
    <vehicle id="veh_12" type="passenger" route="route_30" depart="6.25" />
    <vehicle id="veh_13" type="passenger" route="route_7" depart="6.29" />
    <vehicle id="veh_14" type="passenger" route="route_53" depart="7.14" />
    <vehicle id="veh_15" type="passenger" route="route_64" depart="7.88" />
    <vehicle id="veh_16" type="passenger" route="route_85" depart="8.23" />
    <vehicle id="veh_17" type="passenger" route="route_49" depart="8.44" />
    <vehicle id="veh_18" type="passenger" route="route_54" depart="9.24" />
    <vehicle id="veh_19" type="passenger" route="route_50" depart="10.13" />
    <vehicle id="veh_20" type="passenger" route="route_3" depart="10.67" />
    <vehicle id="veh_21" type="passenger" route="route_25" depart="10.79" />
    <vehicle id="veh_22" type="passenger" route="route_19" depart="10.83" />
    <vehicle id="veh_23" type="passenger" route="route_25" depart="10.88" />
    <vehicle id="veh_24" type="passenger" route="route_31" depart="11.33" />
    <vehicle id="veh_25" type="passenger" route="route_18" depart="11.54" />
    <vehicle id="veh_26" type="passenger" route="route_82" depart="11.68" />
    <vehicle id="veh_27" type="passenger" route="route_54" depart="12.15" />
    <vehicle id="veh_28" type="passenger" route="route_64" depart="12.23" />
    <vehicle id="veh_29" type="passenger" route="route_33" depart="12.31" />
    <vehicle id="veh_30" type="passenger" route="route_55" depart="14.36" />
    <vehicle id="veh_31" type="passenger" route="route_60" depart="14.73" />
    <vehicle id="veh_32" type="passenger" route="route_68" depart="15.56" />
    <vehicle id="veh_33" type="passenger" route="route_2" depart="15.68" />
    <vehicle id="veh_34" type="passenger" route="route_23" depart="15.85" />
    <vehicle id="veh_35" type="passenger" route="route_83" depart="15.96" />
    <vehicle id="veh_36" type="passenger" route="route_27" depart="16.90" />
    <vehicle id="veh_37" type="passenger" route="route_35" depart="17.38" />
    <vehicle id="veh_38" type="passenger" route="route_40" depart="18.48" />
    <vehicle id="veh_39" type="passenger" route="route_21" depart="18.62" />
    <vehicle id="veh_40" type="passenger" route="route_23" depart="18.99" />
    <vehicle id="veh_41" type="passenger" route="route_79" depart="19.39" />
    <vehicle id="veh_42" type="passenger" route="route_19" depart="19.62" />
    <vehicle id="veh_43" type="passenger" route="route_44" depart="22.32" />
    <vehicle id="veh_44" type="passenger" route="route_3" depart="22.36" />
    <vehicle id="veh_45" type="passenger" route="route_55" depart="22.42" />
    <vehicle id="veh_46" type="passenger" route="route_37" depart="23.12" />
    <vehicle id="veh_47" type="passenger" route="route_33" depart="23.15" />
    <vehicle id="veh_48" type="passenger" route="route_46" depart="25.65" />
    <vehicle id="veh_49" type="passenger" route="route_75" depart="27.25" />
    <vehicle id="veh_50" type="passenger" route="route_64" depart="27.25" />
    <vehicle id="veh_51" type="passenger" route="route_47" depart="27.77" />
    <vehicle id="veh_52" type="passenger" route="route_56" depart="27.91" />
    <vehicle id="veh_53" type="passenger" route="route_38" depart="27.96" />
    <vehicle id="veh_54" type="passenger" route="route_84" depart="28.23" />
    <vehicle id="veh_55" type="passenger" route="route_23" depart="29.17" />
    <vehicle id="veh_56" type="passenger" route="route_15" depart="29.48" />
    <vehicle id="veh_57" type="passenger" route="route_75" depart="30.58" />
    <vehicle id="veh_58" type="passenger" route="route_55" depart="30.74" />
    <vehicle id="veh_59" type="passenger" route="route_13" depart="31.16" />
    <vehicle id="veh_60" type="passenger" route="route_47" depart="31.81" />
    <vehicle id="veh_61" type="passenger" route="route_47" depart="32.49" />
    <vehicle id="veh_62" type="passenger" route="route_28" depart="32.49" />
    <vehicle id="veh_63" type="passenger" route="route_81" depart="32.50" />
    <vehicle id="veh_64" type="passenger" route="route_73" depart="33.45" />
    <vehicle id="veh_65" type="passenger" route="route_5" depart="33.61" />
    <vehicle id="veh_66" type="passenger" route="route_83" depart="34.56" />
    <vehicle id="veh_67" type="passenger" route="route_42" depart="34.60" />
    <vehicle id="veh_68" type="passenger" route="route_67" depart="34.63" />
    <vehicle id="veh_69" type="passenger" route="route_11" depart="35.28" />
    <vehicle id="veh_70" type="passenger" route="route_49" depart="35.57" />
    <vehicle id="veh_71" type="passenger" route="route_76" depart="35.71" />
    <vehicle id="veh_72" type="passenger" route="route_18" depart="35.96" />
    <vehicle id="veh_73" type="passenger" route="route_64" depart="36.31" />
    <vehicle id="veh_74" type="passenger" route="route_26" depart="36.41" />
    <vehicle id="veh_75" type="passenger" route="route_57" depart="38.81" />
    <vehicle id="veh_76" type="passenger" route="route_45" depart="39.07" />
    <vehicle id="veh_77" type="passenger" route="route_19" depart="39.13" />
    <vehicle id="veh_78" type="passenger" route="route_52" depart="39.31" />
    <vehicle id="veh_79" type="passenger" route="route_19" depart="39.43" />
    <vehicle id="veh_80" type="passenger" route="route_55" depart="39.46" />
    <vehicle id="veh_81" type="passenger" route="route_79" depart="39.58" />
    <vehicle id="veh_82" type="passenger" route="route_6" depart="40.46" />
    <vehicle id="veh_83" type="passenger" route="route_59" depart="40.58" />
    <vehicle id="veh_84" type="passenger" route="route_11" depart="40.69" />
    <vehicle id="veh_85" type="passenger" route="route_50" depart="41.93" />
    <vehicle id="veh_86" type="passenger" route="route_69" depart="42.21" />
    <vehicle id="veh_87" type="passenger" route="route_16" depart="42.96" />
    <vehicle id="veh_88" type="passenger" route="route_38" depart="43.00" />
    <vehicle id="veh_89" type="passenger" route="route_41" depart="43.25" />
    <vehicle id="veh_90" type="passenger" route="route_59" depart="43.84" />
    <vehicle id="veh_91" type="passenger" route="route_7" depart="45.70" />
    <vehicle id="veh_92" type="passenger" route="route_30" depart="45.93" />
    <vehicle id="veh_93" type="passenger" route="route_21" depart="46.82" />
    <vehicle id="veh_94" type="passenger" route="route_39" depart="46.92" />
    <vehicle id="veh_95" type="passenger" route="route_25" depart="47.17" />
    <vehicle id="veh_96" type="passenger" route="route_80" depart="47.30" />
    <vehicle id="veh_97" type="passenger" route="route_75" depart="47.56" />
    <vehicle id="veh_98" type="passenger" route="route_4" depart="47.92" />
    <vehicle id="veh_99" type="passenger" route="route_74" depart="51.18" />
    <vehicle id="veh_100" type="passenger" route="route_80" depart="52.74" />
    <vehicle id="veh_101" type="passenger" route="route_14" depart="53.59" />
    <vehicle id="veh_102" type="passenger" route="route_18" depart="53.89" />
    <vehicle id="veh_103" type="passenger" route="route_5" depart="54.12" />
    <vehicle id="veh_104" type="passenger" route="route_85" depart="54.33" />
    <vehicle id="veh_105" type="passenger" route="route_69" depart="54.47" />
    <vehicle id="veh_106" type="passenger" route="route_37" depart="54.75" />
    <vehicle id="veh_107" type="passenger" route="route_87" depart="56.16" />
    <vehicle id="veh_108" type="passenger" route="route_63" depart="56.53" />
    <vehicle id="veh_109" type="passenger" route="route_26" depart="56.61" />
    <vehicle id="veh_110" type="passenger" route="route_50" depart="58.16" />
    <vehicle id="veh_111" type="passenger" route="route_65" depart="58.52" />
    <vehicle id="veh_112" type="passenger" route="route_51" depart="58.54" />
    <vehicle id="veh_113" type="passenger" route="route_75" depart="58.86" />
    <vehicle id="veh_114" type="passenger" route="route_84" depart="58.93" />
    <vehicle id="veh_115" type="passenger" route="route_16" depart="58.97" />
    <vehicle id="veh_116" type="passenger" route="route_59" depart="59.38" />
    <vehicle id="veh_117" type="passenger" route="route_10" depart="59.50" />
    <vehicle id="veh_118" type="passenger" route="route_21" depart="60.49" />
    <vehicle id="veh_119" type="passenger" route="route_54" depart="60.90" />
    <vehicle id="veh_120" type="passenger" route="route_51" depart="61.14" />
    <vehicle id="veh_121" type="passenger" route="route_82" depart="61.48" />
    <vehicle id="veh_122" type="passenger" route="route_63" depart="61.58" />
    <vehicle id="veh_123" type="passenger" route="route_35" depart="61.70" />
    <vehicle id="veh_124" type="passenger" route="route_26" depart="62.20" />
    <vehicle id="veh_125" type="passenger" route="route_65" depart="62.38" />
    <vehicle id="veh_126" type="passenger" route="route_40" depart="62.41" />
    <vehicle id="veh_127" type="passenger" route="route_87" depart="65.32" />
    <vehicle id="veh_128" type="passenger" route="route_18" depart="65.36" />
    <vehicle id="veh_129" type="passenger" route="route_82" depart="65.49" />
    <vehicle id="veh_130" type="passenger" route="route_77" depart="66.45" />
    <vehicle id="veh_131" type="passenger" route="route_13" depart="66.66" />
    <vehicle id="veh_132" type="passenger" route="route_62" depart="67.47" />
    <vehicle id="veh_133" type="passenger" route="route_86" depart="67.89" />
    <vehicle id="veh_134" type="passenger" route="route_1" depart="68.37" />
    <vehicle id="veh_135" type="passenger" route="route_26" depart="69.13" />
    <vehicle id="veh_136" type="passenger" route="route_82" depart="69.62" />
    <vehicle id="veh_137" type="passenger" route="route_10" depart="69.69" />
    <vehicle id="veh_138" type="passenger" route="route_49" depart="69.74" />
    <vehicle id="veh_139" type="passenger" route="route_54" depart="69.88" />
    <vehicle id="veh_140" type="passenger" route="route_18" depart="70.45" />
    <vehicle id="veh_141" type="passenger" route="route_23" depart="70.91" />
    <vehicle id="veh_142" type="passenger" route="route_79" depart="71.21" />
    <vehicle id="veh_143" type="passenger" route="route_7" depart="72.05" />
    <vehicle id="veh_144" type="passenger" route="route_24" depart="72.30" />
    <vehicle id="veh_145" type="passenger" route="route_68" depart="72.30" />
    <vehicle id="veh_146" type="passenger" route="route_23" depart="72.75" />
    <vehicle id="veh_147" type="passenger" route="route_49" depart="73.36" />
    <vehicle id="veh_148" type="passenger" route="route_1" depart="73.61" />
    <vehicle id="veh_149" type="passenger" route="route_77" depart="73.65" />
    <vehicle id="veh_150" type="passenger" route="route_48" depart="74.70" />
    <vehicle id="veh_151" type="passenger" route="route_50" depart="75.51" />
    <vehicle id="veh_152" type="passenger" route="route_11" depart="75.59" />
    <vehicle id="veh_153" type="passenger" route="route_79" depart="75.75" />
    <vehicle id="veh_154" type="passenger" route="route_75" depart="76.47" />
    <vehicle id="veh_155" type="passenger" route="route_18" depart="77.50" />
    <vehicle id="veh_156" type="passenger" route="route_8" depart="77.63" />
    <vehicle id="veh_157" type="passenger" route="route_77" depart="78.31" />
    <vehicle id="veh_158" type="passenger" route="route_54" depart="78.54" />
    <vehicle id="veh_159" type="passenger" route="route_81" depart="78.62" />
    <vehicle id="veh_160" type="passenger" route="route_85" depart="79.52" />
    <vehicle id="veh_161" type="passenger" route="route_77" depart="80.27" />
    <vehicle id="veh_162" type="passenger" route="route_64" depart="80.28" />
    <vehicle id="veh_163" type="passenger" route="route_81" depart="80.46" />
    <vehicle id="veh_164" type="passenger" route="route_75" depart="81.19" />
    <vehicle id="veh_165" type="passenger" route="route_23" depart="81.94" />
    <vehicle id="veh_166" type="passenger" route="route_9" depart="82.64" />
    <vehicle id="veh_167" type="passenger" route="route_75" depart="83.56" />
    <vehicle id="veh_168" type="passenger" route="route_71" depart="83.68" />
    <vehicle id="veh_169" type="passenger" route="route_26" depart="83.95" />
    <vehicle id="veh_170" type="passenger" route="route_19" depart="84.67" />
    <vehicle id="veh_171" type="passenger" route="route_17" depart="84.68" />
    <vehicle id="veh_172" type="passenger" route="route_75" depart="84.86" />
    <vehicle id="veh_173" type="passenger" route="route_25" depart="86.39" />
    <vehicle id="veh_174" type="passenger" route="route_35" depart="86.85" />
    <vehicle id="veh_175" type="passenger" route="route_47" depart="88.64" />
    <vehicle id="veh_176" type="passenger" route="route_10" depart="89.90" />
    <vehicle id="veh_177" type="passenger" route="route_15" depart="91.48" />
    <vehicle id="veh_178" type="passenger" route="route_23" depart="92.96" />
    <vehicle id="veh_179" type="passenger" route="route_38" depart="93.01" />
    <vehicle id="veh_180" type="passenger" route="route_27" depart="93.60" />
    <vehicle id="veh_181" type="passenger" route="route_45" depart="94.02" />
    <vehicle id="veh_182" type="passenger" route="route_50" depart="94.24" />
    <vehicle id="veh_183" type="passenger" route="route_62" depart="94.37" />
    <vehicle id="veh_184" type="passenger" route="route_80" depart="94.37" />
    <vehicle id="veh_185" type="passenger" route="route_63" depart="94.72" />
    <vehicle id="veh_186" type="passenger" route="route_59" depart="95.33" />
    <vehicle id="veh_187" type="passenger" route="route_6" depart="95.53" />
    <vehicle id="veh_188" type="passenger" route="route_29" depart="96.02" />
    <vehicle id="veh_189" type="passenger" route="route_74" depart="96.19" />
    <vehicle id="veh_190" type="passenger" route="route_26" depart="96.77" />
    <vehicle id="veh_191" type="passenger" route="route_36" depart="96.93" />
    <vehicle id="veh_192" type="passenger" route="route_26" depart="97.16" />
    <vehicle id="veh_193" type="passenger" route="route_37" depart="97.22" />
    <vehicle id="veh_194" type="passenger" route="route_59" depart="98.49" />
    <vehicle id="veh_195" type="passenger" route="route_54" depart="99.54" />
    <vehicle id="veh_196" type="passenger" route="route_49" depart="99.70" />
    <vehicle id="veh_197" type="passenger" route="route_25" depart="99.70" />
    <vehicle id="veh_198" type="passenger" route="route_50" depart="99.96" />
    <vehicle id="veh_199" type="passenger" route="route_41" depart="100.43" />
    <vehicle id="veh_200" type="passenger" route="route_18" depart="100.70" />
    <vehicle id="veh_201" type="passenger" route="route_79" depart="100.99" />
    <vehicle id="veh_202" type="passenger" route="route_14" depart="101.70" />
    <vehicle id="veh_203" type="passenger" route="route_45" depart="101.74" />
    <vehicle id="veh_204" type="passenger" route="route_30" depart="102.19" />
    <vehicle id="veh_205" type="passenger" route="route_65" depart="102.96" />
    <vehicle id="veh_206" type="passenger" route="route_19" depart="103.46" />
    <vehicle id="veh_207" type="passenger" route="route_1" depart="103.56" />
    <vehicle id="veh_208" type="passenger" route="route_42" depart="103.69" />
    <vehicle id="veh_209" type="passenger" route="route_6" depart="104.54" />
    <vehicle id="veh_210" type="passenger" route="route_55" depart="104.78" />
    <vehicle id="veh_211" type="passenger" route="route_60" depart="104.88" />
    <vehicle id="veh_212" type="passenger" route="route_21" depart="105.19" />
    <vehicle id="veh_213" type="passenger" route="route_0" depart="105.67" />
    <vehicle id="veh_214" type="passenger" route="route_68" depart="106.29" />
    <vehicle id="veh_215" type="passenger" route="route_37" depart="106.34" />
    <vehicle id="veh_216" type="passenger" route="route_84" depart="106.43" />
    <vehicle id="veh_217" type="passenger" route="route_4" depart="106.76" />
    <vehicle id="veh_218" type="passenger" route="route_74" depart="106.89" />
    <vehicle id="veh_219" type="passenger" route="route_70" depart="107.16" />
    <vehicle id="veh_220" type="passenger" route="route_86" depart="107.66" />
    <vehicle id="veh_221" type="passenger" route="route_84" depart="108.07" />
    <vehicle id="veh_222" type="passenger" route="route_54" depart="109.06" />
    <vehicle id="veh_223" type="passenger" route="route_43" depart="109.64" />
    <vehicle id="veh_224" type="passenger" route="route_49" depart="110.43" />
    <vehicle id="veh_225" type="passenger" route="route_65" depart="111.46" />
    <vehicle id="veh_226" type="passenger" route="route_22" depart="111.75" />
    <vehicle id="veh_227" type="passenger" route="route_55" depart="111.88" />
    <vehicle id="veh_228" type="passenger" route="route_46" depart="112.53" />
    <vehicle id="veh_229" type="passenger" route="route_24" depart="112.97" />
    <vehicle id="veh_230" type="passenger" route="route_25" depart="113.01" />
    <vehicle id="veh_231" type="passenger" route="route_28" depart="113.15" />
    <vehicle id="veh_232" type="passenger" route="route_12" depart="113.50" />
    <vehicle id="veh_233" type="passenger" route="route_60" depart="113.62" />
    <vehicle id="veh_234" type="passenger" route="route_5" depart="114.17" />
    <vehicle id="veh_235" type="passenger" route="route_48" depart="114.41" />
    <vehicle id="veh_236" type="passenger" route="route_18" depart="114.65" />
    <vehicle id="veh_237" type="passenger" route="route_79" depart="114.89" />
    <vehicle id="veh_238" type="passenger" route="route_60" depart="115.29" />
    <vehicle id="veh_239" type="passenger" route="route_67" depart="116.16" />
    <vehicle id="veh_240" type="passenger" route="route_0" depart="116.38" />
    <vehicle id="veh_241" type="passenger" route="route_65" depart="116.57" />
    <vehicle id="veh_242" type="passenger" route="route_84" depart="117.44" />
    <vehicle id="veh_243" type="passenger" route="route_65" depart="117.68" />
    <vehicle id="veh_244" type="passenger" route="route_53" depart="118.04" />
    <vehicle id="veh_245" type="passenger" route="route_19" depart="118.15" />
    <vehicle id="veh_246" type="passenger" route="route_2" depart="118.41" />
    <vehicle id="veh_247" type="passenger" route="route_59" depart="118.59" />
    <vehicle id="veh_248" type="passenger" route="route_14" depart="118.82" />
    <vehicle id="veh_249" type="passenger" route="route_11" depart="119.11" />
    <vehicle id="veh_250" type="passenger" route="route_2" depart="119.55" />
    <vehicle id="veh_251" type="passenger" route="route_49" depart="119.77" />
    <vehicle id="veh_252" type="passenger" route="route_56" depart="119.78" />
    <vehicle id="veh_253" type="passenger" route="route_40" depart="119.85" />
    <vehicle id="veh_254" type="passenger" route="route_33" depart="119.87" />
    <vehicle id="veh_255" type="passenger" route="route_28" depart="119.98" />
    <vehicle id="veh_256" type="passenger" route="route_33" depart="120.62" />
    <vehicle id="veh_257" type="passenger" route="route_73" depart="121.25" />
    <vehicle id="veh_258" type="passenger" route="route_6" depart="121.38" />
    <vehicle id="veh_259" type="passenger" route="route_48" depart="121.39" />
    <vehicle id="veh_260" type="passenger" route="route_30" depart="125.57" />
    <vehicle id="veh_261" type="passenger" route="route_69" depart="126.05" />
    <vehicle id="veh_262" type="passenger" route="route_65" depart="126.52" />
    <vehicle id="veh_263" type="passenger" route="route_17" depart="127.86" />
    <vehicle id="veh_264" type="passenger" route="route_13" depart="127.87" />
    <vehicle id="veh_265" type="passenger" route="route_59" depart="127.93" />
    <vehicle id="veh_266" type="passenger" route="route_19" depart="128.31" />
    <vehicle id="veh_267" type="passenger" route="route_67" depart="128.85" />
    <vehicle id="veh_268" type="passenger" route="route_54" depart="128.93" />
    <vehicle id="veh_269" type="passenger" route="route_9" depart="129.55" />
    <vehicle id="veh_270" type="passenger" route="route_84" depart="130.32" />
    <vehicle id="veh_271" type="passenger" route="route_2" depart="130.37" />
    <vehicle id="veh_272" type="passenger" route="route_59" depart="130.54" />
    <vehicle id="veh_273" type="passenger" route="route_35" depart="131.97" />
    <vehicle id="veh_274" type="passenger" route="route_6" depart="132.53" />
    <vehicle id="veh_275" type="passenger" route="route_55" depart="133.06" />
    <vehicle id="veh_276" type="passenger" route="route_68" depart="133.11" />
    <vehicle id="veh_277" type="passenger" route="route_53" depart="133.97" />
    <vehicle id="veh_278" type="passenger" route="route_85" depart="134.02" />
    <vehicle id="veh_279" type="passenger" route="route_30" depart="134.71" />
    <vehicle id="veh_280" type="passenger" route="route_32" depart="134.96" />
    <vehicle id="veh_281" type="passenger" route="route_30" depart="135.28" />
    <vehicle id="veh_282" type="passenger" route="route_72" depart="136.13" />
    <vehicle id="veh_283" type="passenger" route="route_84" depart="136.18" />
    <vehicle id="veh_284" type="passenger" route="route_73" depart="136.64" />
    <vehicle id="veh_285" type="passenger" route="route_38" depart="137.19" />
    <vehicle id="veh_286" type="passenger" route="route_84" depart="137.78" />
    <vehicle id="veh_287" type="passenger" route="route_70" depart="137.93" />
    <vehicle id="veh_288" type="passenger" route="route_42" depart="138.27" />
    <vehicle id="veh_289" type="passenger" route="route_64" depart="138.53" />
    <vehicle id="veh_290" type="passenger" route="route_74" depart="138.67" />
    <vehicle id="veh_291" type="passenger" route="route_7" depart="139.47" />
    <vehicle id="veh_292" type="passenger" route="route_21" depart="140.43" />
    <vehicle id="veh_293" type="passenger" route="route_54" depart="140.71" />
    <vehicle id="veh_294" type="passenger" route="route_2" depart="140.93" />
    <vehicle id="veh_295" type="passenger" route="route_15" depart="141.78" />
    <vehicle id="veh_296" type="passenger" route="route_70" depart="141.89" />
    <vehicle id="veh_297" type="passenger" route="route_77" depart="142.08" />
    <vehicle id="veh_298" type="passenger" route="route_24" depart="142.62" />
    <vehicle id="veh_299" type="passenger" route="route_83" depart="142.63" />
    <vehicle id="veh_300" type="passenger" route="route_64" depart="142.67" />
    <vehicle id="veh_301" type="passenger" route="route_66" depart="142.97" />
    <vehicle id="veh_302" type="passenger" route="route_57" depart="143.50" />
    <vehicle id="veh_303" type="passenger" route="route_69" depart="143.80" />
    <vehicle id="veh_304" type="passenger" route="route_19" depart="143.84" />
    <vehicle id="veh_305" type="passenger" route="route_26" depart="144.37" />
    <vehicle id="veh_306" type="passenger" route="route_42" depart="144.77" />
    <vehicle id="veh_307" type="passenger" route="route_37" depart="145.11" />
    <vehicle id="veh_308" type="passenger" route="route_29" depart="145.72" />
    <vehicle id="veh_309" type="passenger" route="route_24" depart="146.27" />
    <vehicle id="veh_310" type="passenger" route="route_10" depart="146.40" />
    <vehicle id="veh_311" type="passenger" route="route_10" depart="146.50" />
    <vehicle id="veh_312" type="passenger" route="route_67" depart="146.84" />
    <vehicle id="veh_313" type="passenger" route="route_18" depart="146.93" />
    <vehicle id="veh_314" type="passenger" route="route_64" depart="147.23" />
    <vehicle id="veh_315" type="passenger" route="route_46" depart="148.92" />
    <vehicle id="veh_316" type="passenger" route="route_7" depart="149.07" />
    <vehicle id="veh_317" type="passenger" route="route_19" depart="149.17" />
    <vehicle id="veh_318" type="passenger" route="route_1" depart="149.26" />
    <vehicle id="veh_319" type="passenger" route="route_24" depart="149.60" />