<routes>
    <vType id="standard_car" accel="0.8" decel="4.5" length="5.0" />

    <route id="route_0" edges="t2c c2b" />
    <route id="route_1" edges="t2c c2l" />
    <route id="route_2" edges="t2c c2r" />
    <route id="route_3" edges="b2c c2t" />
    <route id="route_4" edges="b2c c2l" />
    <route id="route_5" edges="b2c c2r" />
    <route id="route_6" edges="l2c c2r" />
    <route id="route_7" edges="l2c c2t" />
    <route id="route_8" edges="l2c c2b" />
    <route id="route_9" edges="r2c c2l" />
    <route id="route_10" edges="r2c c2t" />
    <route id="route_11" edges="r2c c2b" />

    <vehicle id="veh_0" type="standard_car" route="route_3" depart="1.42" />
    <vehicle id="veh_1" type="standard_car" route="route_11" depart="3.68" />
    <vehicle id="veh_2" type="standard_car" route="route_10" depart="3.70" />
    <vehicle id="veh_3" type="standard_car" route="route_2" depart="4.08" />
    <vehicle id="veh_4" type="standard_car" route="route_0" depart="4.70" />
    <vehicle id="veh_5" type="standard_car" route="route_10" depart="5.13" />
    <vehicle id="veh_6" type="standard_car" route="route_3" depart="5.79" />
    <vehicle id="veh_7" type="standard_car" route="route_6" depart="6.98" />
    <vehicle id="veh_8" type="standard_car" route="route_11" depart="10.84" />
    <vehicle id="veh_9" type="standard_car" route="route_1" depart="14.56" />
    <vehicle id="veh_10" type="standard_car" route="route_8" depart="16.09" />
    <vehicle id="veh_11" type="standard_car" route="route_5" depart="16.75" />
    <vehicle id="veh_12" type="standard_car" route="route_9" depart="17.74" />
    <vehicle id="veh_13" type="standard_car" route="route_6" depart="17.76" />
    <vehicle id="veh_14" type="standard_car" route="route_2" depart="21.82" />
    <vehicle id="veh_15" type="standard_car" route="route_6" depart="22.69" />
    <vehicle id="veh_16" type="standard_car" route="route_11" depart="24.69" />
    <vehicle id="veh_17" type="standard_car" route="route_9" depart="25.14" />
    <vehicle id="veh_18" type="standard_car" route="route_1" depart="28.16" />
    <vehicle id="veh_19" type="standard_car" route="route_0" depart="28.80" />
    <vehicle id="veh_20" type="standard_car" route="route_0" depart="29.43" />
    <vehicle id="veh_21" type="standard_car" route="route_3" depart="29.48" />
    <vehicle id="veh_22" type="standard_car" route="route_11" depart="30.92" />
    <vehicle id="veh_23" type="standard_car" route="route_4" depart="32.38" />
    <vehicle id="veh_24" type="standard_car" route="route_6" depart="32.87" />
    <vehicle id="veh_25" type="standard_car" route="route_3" depart="33.87" />
    <vehicle id="veh_26" type="standard_car" route="route_5" depart="35.94" />
    <vehicle id="veh_27" type="standard_car" route="route_11" depart="35.97" />
    <vehicle id="veh_28" type="standard_car" route="route_8" depart="36.35" />
    <vehicle id="veh_29" type="standard_car" route="route_10" depart="37.38" />
    <vehicle id="veh_30" type="standard_car" route="route_3" depart="37.44" />
    <vehicle id="veh_31" type="standard_car" route="route_9" depart="42.34" />
    <vehicle id="veh_32" type="standard_car" route="route_3" depart="43.10" />
    <vehicle id="veh_33" type="standard_car" route="route_2" depart="46.64" />
    <vehicle id="veh_34" type="standard_car" route="route_0" depart="50.85" />
    <vehicle id="veh_35" type="standard_car" route="route_10" depart="52.83" />
    <vehicle id="veh_36" type="standard_car" route="route_11" depart="54.73" />
    <vehicle id="veh_37" type="standard_car" route="route_5" depart="54.86" />
    <vehicle id="veh_38" type="standard_car" route="route_7" depart="57.03" />
    <vehicle id="veh_39" type="standard_car" route="route_11" depart="57.29" />
    <vehicle id="veh_40" type="standard_car" route="route_10" depart="57.88" />
    <vehicle id="veh_41" type="standard_car" route="route_0" depart="58.87" />
    <vehicle id="veh_42" type="standard_car" route="route_5" depart="62.04" />
    <vehicle id="veh_43" type="standard_car" route="route_6" depart="62.74" />
    <vehicle id="veh_44" type="standard_car" route="route_2" depart="65.20" />
    <vehicle id="veh_45" type="standard_car" route="route_6" depart="71.32" />
    <vehicle id="veh_46" type="standard_car" route="route_2" depart="72.04" />
    <vehicle id="veh_47" type="standard_car" route="route_6" depart="74.56" />
    <vehicle id="veh_48" type="standard_car" route="route_11" depart="74.69" />
    <vehicle id="veh_49" type="standard_car" route="route_2" depart="75.39" />
    <vehicle id="veh_50" type="standard_car" route="route_8" depart="76.05" />
    <vehicle id="veh_51" type="standard_car" route="route_0" depart="77.41" />
    <vehicle id="veh_52" type="standard_car" route="route_5" depart="85.47" />
    <vehicle id="veh_53" type="standard_car" route="route_9" depart="86.01" />
    <vehicle id="veh_54" type="standard_car" route="route_3" depart="88.91" />
    <vehicle id="veh_55" type="standard_car" route="route_2" depart="89.00" />
    <vehicle id="veh_56" type="standard_car" route="route_7" depart="89.03" />
    <vehicle id="veh_57" type="standard_car" route="route_8" depart="89.08" />
    <vehicle id="veh_58" type="standard_car" route="route_11" depart="92.68" />
    <vehicle id="veh_59" type="standard_car" route="route_2" depart="93.96" />
    <vehicle id="veh_60" type="standard_car" route="route_11" depart="94.63" />
    <vehicle id="veh_61" type="standard_car" route="route_11" depart="94.66" />
    <vehicle id="veh_62" type="standard_car" route="route_7" depart="95.81" />
    <vehicle id="veh_63" type="standard_car" route="route_9" depart="96.12" />
    <vehicle id="veh_64" type="standard_car" route="route_2" depart="99.14" />
    <vehicle id="veh_65" type="standard_car" route="route_4" depart="99.75" />
    <vehicle id="veh_66" type="standard_car" route="route_11" depart="100.64" />
    <vehicle id="veh_67" type="standard_car" route="route_3" depart="103.06" />
    <vehicle id="veh_68" type="standard_car" route="route_5" depart="105.30" />
    <vehicle id="veh_69" type="standard_car" route="route_5" depart="105.38" />
    <vehicle id="veh_70" type="standard_car" route="route_5" depart="105.41" />
    <vehicle id="veh_71" type="standard_car" route="route_5" depart="107.52" />
    <vehicle id="veh_72" type="standard_car" route="route_2" depart="107.89" />
    <vehicle id="veh_73" type="standard_car" route="route_2" depart="110.85" />
    <vehicle id="veh_74" type="standard_car" route="route_6" depart="113.25" />
    <vehicle id="veh_75" type="standard_car" route="route_1" depart="114.28" />
    <vehicle id="veh_76" type="standard_car" route="route_6" depart="117.96" />
    <vehicle id="veh_77" type="standard_car" route="route_1" depart="118.24" />
    <vehicle id="veh_78" type="standard_car" route="route_9" depart="119.85" />
    <vehicle id="veh_79" type="standard_car" route="route_10" depart="120.36" />
    <vehicle id="veh_80" type="standard_car" route="route_6" depart="122.32" />
    <vehicle id="veh_81" type="standard_car" route="route_9" depart="122.55" />
    <vehicle id="veh_82" type="standard_car" route="route_5" depart="123.42" />
    <vehicle id="veh_83" type="standard_car" route="route_6" depart="123.64" />
    <vehicle id="veh_84" type="standard_car" route="route_11" depart="125.42" />
    <vehicle id="veh_85" type="standard_car" route="route_2" depart="125.74" />
    <vehicle id="veh_86" type="standard_car" route="route_1" depart="125.84" />
    <vehicle id="veh_87" type="standard_car" route="route_5" depart="127.96" />
    <vehicle id="veh_88" type="standard_car" route="route_4" depart="129.69" />
    <vehicle id="veh_89" type="standard_car" route="route_8" depart="130.37" />
    <vehicle id="veh_90" type="standard_car" route="route_4" depart="132.33" />
    <vehicle id="veh_91" type="standard_car" route="route_10" depart="133.16" />
    <vehicle id="veh_92" type="standard_car" route="route_10" depart="133.60" />
    <vehicle id="veh_93" type="standard_car" route="route_9" depart="135.12" />
    <vehicle id="veh_94" type="standard_car" route="route_2" depart="136.40" />
    <vehicle id="veh_95" type="standard_car" route="route_3" depart="137.10" />
    <vehicle id="veh_96" type="standard_car" route="route_3" depart="137.63" />
    <vehicle id="veh_97" type="standard_car" route="route_3" depart="141.89" />
    <vehicle id="veh_98" type="standard_car" route="route_0" depart="148.96" />
    <vehicle id="veh_99" type="standard_car" route="route_10" depart="150.83" />
    <vehicle id="veh_100" type="standard_car" route="route_11" depart="154.78" />
    <vehicle id="veh_101" type="standard_car" route="route_8" depart="154.88" />
    <vehicle id="veh_102" type="standard_car" route="route_8" depart="155.85" />
    <vehicle id="veh_103" type="standard_car" route="route_7" depart="157.15" />
    <vehicle id="veh_104" type="standard_car" route="route_7" depart="157.82" />
    <vehicle id="veh_105" type="standard_car" route="route_8" depart="159.05" />
    <vehicle id="veh_106" type="standard_car" route="route_10" depart="159.47" />
    <vehicle id="veh_107" type="standard_car" route="route_6" depart="159.65" />
    <vehicle id="veh_108" type="standard_car" route="route_3" depart="159.96" />
    <vehicle id="veh_109" type="standard_car" route="route_5" depart="160.87" />
    <vehicle id="veh_110" type="standard_car" route="route_0" depart="162.58" />
    <vehicle id="veh_111" type="standard_car" route="route_3" depart="162.69" />
    <vehicle id="veh_112" type="standard_car" route="route_5" depart="163.64" />
    <vehicle id="veh_113" type="standard_car" route="route_6" depart="165.09" />
    <vehicle id="veh_114" type="standard_car" route="route_11" depart="166.33" />
    <vehicle id="veh_115" type="standard_car" route="route_1" depart="166.79" />
    <vehicle id="veh_116" type="standard_car" route="route_4" depart="167.73" />
    <vehicle id="veh_117" type="standard_car" route="route_5" depart="174.56" />
    <vehicle id="veh_118" type="standard_car" route="route_7" depart="177.03" />
    <vehicle id="veh_119" type="standard_car" route="route_0" depart="178.84" />
    <vehicle id="veh_120" type="standard_car" route="route_5" depart="182.61" />
    <vehicle id="veh_121" type="standard_car" route="route_1" depart="183.02" />
    <vehicle id="veh_122" type="standard_car" route="route_9" depart="184.68" />
    <vehicle id="veh_123" type="standard_car" route="route_6" depart="187.66" />
    <vehicle id="veh_124" type="standard_car" route="route_2" depart="188.16" />
    <vehicle id="veh_125" type="standard_car" route="route_2" depart="188.54" />
    <vehicle id="veh_126" type="standard_car" route="route_6" depart="188.81" />
    <vehicle id="veh_127" type="standard_car" route="route_11" depart="188.86" />
    <vehicle id="veh_128" type="standard_car" route="route_4" depart="190.14" />
    <vehicle id="veh_129" type="standard_car" route="route_1" depart="190.46" />
    <vehicle id="veh_130" type="standard_car" route="route_7" depart="194.72" />
    <vehicle id="veh_131" type="standard_car" route="route_4" depart="195.66" />
    <vehicle id="veh_132" type="standard_car" route="route_8" depart="198.38" />
    <vehicle id="veh_133" type="standard_car" route="route_2" depart="205.16" />
    <vehicle id="veh_134" type="standard_car" route="route_11" depart="205.99" />
    <vehicle id="veh_135" type="standard_car" route="route_0" depart="206.03" />
    <vehicle id="veh_136" type="standard_car" route="route_10" depart="209.15" />
    <vehicle id="veh_137" type="standard_car" route="route_11" depart="209.59" />
    <vehicle id="veh_138" type="standard_car" route="route_10" depart="213.56" />
    <vehicle id="veh_139" type="standard_car" route="route_3" depart="216.35" />
    <vehicle id="veh_140" type="standard_car" route="route_6" depart="216.90" />
    <vehicle id="veh_141" type="standard_car" route="route_4" depart="216.95" />
    <vehicle id="veh_142" type="standard_car" route="route_3" depart="218.17" />
    <vehicle id="veh_143" type="standard_car" route="route_4" depart="218.71" />
    <vehicle id="veh_144" type="standard_car" route="route_4" depart="219.98" />
    <vehicle id="veh_145" type="standard_car" route="route_0" depart="222.68" />
    <vehicle id="veh_146" type="standard_car" route="route_5" depart="224.20" />
    <vehicle id="veh_147" type="standard_car" route="route_3" depart="224.48" />
    <vehicle id="veh_148" type="standard_car" route="route_1" depart="225.12" />
    <vehicle id="veh_149" type="standard_car" route="route_4" depart="226.45" />
    <vehicle id="veh_150" type="standard_car" route="route_11" depart="227.21" />
    <vehicle id="veh_151" type="standard_car" route="route_6" depart="229.50" />
    <vehicle id="veh_152" type="standard_car" route="route_7" depart="229.67" />
    <vehicle id="veh_153" type="standard_car" route="route_0" depart="233.16" />
    <vehicle id="veh_154" type="standard_car" route="route_1" depart="235.08" />
    <vehicle id="veh_155" type="standard_car" route="route_3" depart="237.19" />
    <vehicle id="veh_156" type="standard_car" route="route_2" depart="241.72" />
    <vehicle id="veh_157" type="standard_car" route="route_5" depart="241.91" />
    <vehicle id="veh_158" type="standard_car" route="route_3" depart="245.68" />
    <vehicle id="veh_159" type="standard_car" route="route_1" depart="246.30" />
    <vehicle id="veh_160" type="standard_car" route="route_8" depart="248.56" />
    <vehicle id="veh_161" type="standard_car" route="route_8" depart="251.69" />
    <vehicle id="veh_162" type="standard_car" route="route_3" depart="254.08" />
    <vehicle id="veh_163" type="standard_car" route="route_0" depart="257.43" />
    <vehicle id="veh_164" type="standard_car" route="route_10" depart="257.92" />
    <vehicle id="veh_165" type="standard_car" route="route_1" depart="261.04" />
    <vehicle id="veh_166" type="standard_car" route="route_4" depart="267.89" />
    <vehicle id="veh_167" type="standard_car" route="route_10" depart="268.21" />
    <vehicle id="veh_168" type="standard_car" route="route_8" depart="269.47" />
    <vehicle id="veh_169" type="standard_car" route="route_6" depart="272.25" />
    <vehicle id="veh_170" type="standard_car" route="route_9" depart="272.57" />
    <vehicle id="veh_171" type="standard_car" route="route_8" depart="274.17" />
    <vehicle id="veh_172" type="standard_car" route="route_10" depart="274.27" />
    <vehicle id="veh_173" type="standard_car" route="route_7" depart="274.56" />
    <vehicle id="veh_174" type="standard_car" route="route_10" depart="276.48" />
    <vehicle id="veh_175" type="standard_car" route="route_9" depart="277.95" />
    <vehicle id="veh_176" type="standard_car" route="route_3" depart="278.39" />
    <vehicle id="veh_177" type="standard_car" route="route_2" depart="280.80" />
    <vehicle id="veh_178" type="standard_car" route="route_2" depart="280.90" />
    <vehicle id="veh_179" type="standard_car" route="route_6" depart="283.28" />
    <vehicle id="veh_180" type="standard_car" route="route_7" depart="285.24" />
    <vehicle id="veh_181" type="standard_car" route="route_5" depart="285.57" />
    <vehicle id="veh_182" type="standard_car" route="route_9" depart="286.87" />
    <vehicle id="veh_183" type="standard_car" route="route_11" depart="291.14" />
    <vehicle id="veh_184" type="standard_car" route="route_1" depart="293.15" />
    <vehicle id="veh_185" type="standard_car" route="route_9" depart="297.86" />
    <vehicle id="veh_186" type="standard_car" route="route_10" depart="298.15" />
    <vehicle id="veh_187" type="standard_car" route="route_8" depart="298.88" />
    <vehicle id="veh_188" type="standard_car" route="route_2" depart="299.79" />
    <vehicle id="veh_189" type="standard_car" route="route_7" depart="300.22" />
    <vehicle id="veh_190" type="standard_car" route="route_8" depart="302.56" />
    <vehicle id="veh_191" type="standard_car" route="route_4" depart="304.03" />
    <vehicle id="veh_192" type="standard_car" route="route_6" depart="307.40" />
    <vehicle id="veh_193" type="standard_car" route="route_5" depart="315.33" />
    <vehicle id="veh_194" type="standard_car" route="route_3" depart="317.91" />
    <vehicle id="veh_195" type="standard_car" route="route_5" depart="318.11" />
    <vehicle id="veh_196" type="standard_car" route="route_3" depart="319.48" />
    <vehicle id="veh_197" type="standard_car" route="route_0" depart="321.33" />
    <vehicle id="veh_198" type="standard_car" route="route_2" depart="321.60" />
    <vehicle id="veh_199" type="standard_car" route="route_0" depart="324.30" />
    <vehicle id="veh_200" type="standard_car" route="route_2" depart="329.09" />
    <vehicle id="veh_201" type="standard_car" route="route_10" depart="329.84" />
    <vehicle id="veh_202" type="standard_car" route="route_1" depart="330.83" />
    <vehicle id="veh_203" type="standard_car" route="route_2" depart="333.99" />
    <vehicle id="veh_204" type="standard_car" route="route_5" depart="335.29" />
    <vehicle id="veh_205" type="standard_car" route="route_7" depart="337.93" />
    <vehicle id="veh_206" type="standard_car" route="route_10" depart="343.49" />
    <vehicle id="veh_207" type="standard_car" route="route_11" depart="343.74" />
    <vehicle id="veh_208" type="standard_car" route="route_3" depart="344.01" />
    <vehicle id="veh_209" type="standard_car" route="route_3" depart="345.70" />
    <vehicle id="veh_210" type="standard_car" route="route_5" depart="351.68" />
    <vehicle id="veh_211" type="standard_car" route="route_11" depart="361.39" />
    <vehicle id="veh_212" type="standard_car" route="route_10" depart="366.67" />
    <vehicle id="veh_213" type="standard_car" route="route_2" depart="366.87" />
    <vehicle id="veh_214" type="standard_car" route="route_0" depart="367.23" />
    <vehicle id="veh_215" type="standard_car" route="route_2" depart="369.69" />
    <vehicle id="veh_216" type="standard_car" route="route_7" depart="370.72" />
    <vehicle id="veh_217" type="standard_car" route="route_4" depart="374.24" />
    <vehicle id="veh_218" type="standard_car" route="route_1" depart="375.29" />
    <vehicle id="veh_219" type="standard_car" route="route_2" depart="379.97" />
    <vehicle id="veh_220" type="standard_car" route="route_8" depart="380.16" />
    <vehicle id="veh_221" type="standard_car" route="route_3" depart="385.14" />
    <vehicle id="veh_222" type="standard_car" route="route_11" depart="386.99" />
    <vehicle id="veh_223" type="standard_car" route="route_8" depart="389.62" />
    <vehicle id="veh_224" type="standard_car" route="route_0" depart="396.33" />
    <vehicle id="veh_225" type="standard_car" route="route_9" depart="397.17" />
    <vehicle id="veh_226" type="standard_car" route="route_9" depart="398.25" />
    <vehicle id="veh_227" type="standard_car" route="route_11" depart="399.26" />
    <vehicle id="veh_228" type="standard_car" route="route_6" depart="401.51" />
    <vehicle id="veh_229" type="standard_car" route="route_8" depart="402.97" />
    <vehicle id="veh_230" type="standard_car" route="route_4" depart="405.14" />
    <vehicle id="veh_231" type="standard_car" route="route_0" depart="405.27" />
    <vehicle id="veh_232" type="standard_car" route="route_9" depart="405.98" />
    <vehicle id="veh_233" type="standard_car" route="route_2" depart="410.63" />
    <vehicle id="veh_234" type="standard_car" route="route_9" depart="411.92" />
    <vehicle id="veh_235" type="standard_car" route="route_9" depart="412.12" />
    <vehicle id="veh_236" type="standard_car" route="route_2" depart="414.17" />
    <vehicle id="veh_237" type="standard_car" route="route_1" depart="414.41" />
    <vehicle id="veh_238" type="standard_car" route="route_0" depart="418.73" />
    <vehicle id="veh_239" type="standard_car" route="route_5" depart="425.00" />
    <vehicle id="veh_240" type="standard_car" route="route_0" depart="425.50" />
    <vehicle id="veh_241" type="standard_car" route="route_1" depart="426.50" />
    <vehicle id="veh_242" type="standard_car" route="route_0" depart="427.13" />
    <vehicle id="veh_243" type="standard_car" route="route_0" depart="433.01" />
    <vehicle id="veh_244" type="standard_car" route="route_6" depart="436.10" />
    <vehicle id="veh_245" type="standard_car" route="route_10" depart="439.72" />
    <vehicle id="veh_246" type="standard_car" route="route_7" depart="440.78" />
    <vehicle id="veh_247" type="standard_car" route="route_0" depart="444.50" />
    <vehicle id="veh_248" type="standard_car" route="route_9" depart="446.78" />
    <vehicle id="veh_249" type="standard_car" route="route_10" depart="447.11" />
    <vehicle id="veh_250" type="standard_car" route="route_11" depart="448.22" />
    <vehicle id="veh_251" type="standard_car" route="route_10" depart="449.13" />
    <vehicle id="veh_252" type="standard_car" route="route_3" depart="450.60" />
    <vehicle id="veh_253" type="standard_car" route="route_5" depart="458.11" />
    <vehicle id="veh_254" type="standard_car" route="route_11" depart="459.89" />
    <vehicle id="veh_255" type="standard_car" route="route_7" depart="460.36" />
    <vehicle id="veh_256" type="standard_car" route="route_7" depart="460.36" />
    <vehicle id="veh_257" type="standard_car" route="route_7" depart="460.56" />
    <vehicle id="veh_258" type="standard_car" route="route_11" depart="465.07" />
    <vehicle id="veh_259" type="standard_car" route="route_0" depart="465.09" />
    <vehicle id="veh_260" type="standard_car" route="route_0" depart="465.48" />
    <vehicle id="veh_261" type="standard_car" route="route_0" depart="466.41" />
    <vehicle id="veh_262" type="standard_car" route="route_0" depart="468.53" />
    <vehicle id="veh_263" type="standard_car" route="route_1" depart="469.86" />
    <vehicle id="veh_264" type="standard_car" route="route_10" depart="470.97" />
    <vehicle id="veh_265" type="standard_car" route="route_8" depart="471.29" />
    <vehicle id="veh_266" type="standard_car" route="route_8" depart="471.89" />
    <vehicle id="veh_267" type="standard_car" route="route_3" depart="475.63" />
    <vehicle id="veh_268" type="standard_car" route="route_4" depart="477.18" />
    <vehicle id="veh_269" type="standard_car" route="route_10" depart="483.87" />
    <vehicle id="veh_270" type="standard_car" route="route_6" depart="484.98" />
    <vehicle id="veh_271" type="standard_car" route="route_2" depart="486.98" />
    <vehicle id="veh_272" type="standard_car" route="route_10" depart="487.44" />
    <vehicle id="veh_273" type="standard_car" route="route_4" depart="487.57" />
    <vehicle id="veh_274" type="standard_car" route="route_6" depart="490.05" />
    <vehicle id="veh_275" type="standard_car" route="route_3" depart="490.84" />
    <vehicle id="veh_276" type="standard_car" route="route_9" depart="490.98" />
    <vehicle id="veh_277" type="standard_car" route="route_9" depart="491.15" />
    <vehicle id="veh_278" type="standard_car" route="route_3" depart="491.36" />
    <vehicle id="veh_279" type="standard_car" route="route_11" depart="492.94" />
    <vehicle id="veh_280" type="standard_car" route="route_7" depart="501.52" />
    <vehicle id="veh_281" type="standard_car" route="route_8" depart="501.75" />
    <vehicle id="veh_282" type="standard_car" route="route_9" depart="502.52" />
    <vehicle id="veh_283" type="standard_car" route="route_11" depart="506.38" />
    <vehicle id="veh_284" type="standard_car" route="route_4" depart="507.47" />
    <vehicle id="veh_285" type="standard_car" route="route_7" depart="508.43" />
    <vehicle id="veh_286" type="standard_car" route="route_11" depart="514.05" />
    <vehicle id="veh_287" type="standard_car" route="route_11" depart="516.40" />
    <vehicle id="veh_288" type="standard_car" route="route_10" depart="516.87" />
    <vehicle id="veh_289" type="standard_car" route="route_8" depart="522.85" />
    <vehicle id="veh_290" type="standard_car" route="route_0" depart="522.86" />
    <vehicle id="veh_291" type="standard_car" route="route_8" depart="523.77" />
    <vehicle id="veh_292" type="standard_car" route="route_5" depart="527.95" />
    <vehicle id="veh_293" type="standard_car" route="route_3" depart="529.43" />
    <vehicle id="veh_294" type="standard_car" route="route_4" depart="530.34" />
    <vehicle id="veh_295" type="standard_car" route="route_4" depart="530.81" />
    <vehicle id="veh_296" type="standard_car" route="route_8" depart="533.20" />
    <vehicle id="veh_297" type="standard_car" route="route_5" depart="535.37" />
    <vehicle id="veh_298" type="standard_car" route="route_5" depart="536.34" />
    <vehicle id="veh_299" type="standard_car" route="route_10" depart="536.92" />
    <vehicle id="veh_300" type="standard_car" route="route_9" depart="537.28" />
    <vehicle id="veh_301" type="standard_car" route="route_5" depart="537.86" />
    <vehicle id="veh_302" type="standard_car" route="route_6" depart="538.99" />
    <vehicle id="veh_303" type="standard_car" route="route_5" depart="538.99" />
    <vehicle id="veh_304" type="standard_car" route="route_3" depart="543.42" />
    <vehicle id="veh_305" type="standard_car" route="route_7" depart="545.46" />
    <vehicle id="veh_306" type="standard_car" route="route_4" depart="545.92" />
    <vehicle id="veh_307" type="standard_car" route="route_0" depart="547.85" />
    <vehicle id="veh_308" type="standard_car" route="route_1" depart="549.14" />
    <vehicle id="veh_309" type="standard_car" route="route_10" depart="549.46" />
    <vehicle id="veh_310" type="standard_car" route="route_6" depart="550.45" />
    <vehicle id="veh_311" type="standard_car" route="route_10" depart="552.84" />
    <vehicle id="veh_312" type="standard_car" route="route_0" depart="554.26" />
    <vehicle id="veh_313" type="standard_car" route="route_10" depart="555.91" />
    <vehicle id="veh_314" type="standard_car" route="route_0" depart="557.10" />
    <vehicle id="veh_315" type="standard_car" route="route_4" depart="558.61" />
    <vehicle id="veh_316" type="standard_car" route="route_2" depart="559.25" />
    <vehicle id="veh_317" type="standard_car" route="route_3" depart="561.47" />
    <vehicle id="veh_318" type="standard_car" route="route_7" depart="564.82" />
    <vehicle id="veh_319" type="standard_car" route="route_0" depart="568.47" />
    <vehicle id="veh_320" type="standard_car" route="route_5" depart="569.29" />
    <vehicle id="veh_321" type="standard_car" route="route_8" depart="570.33" />
    <vehicle id="veh_322" type="standard_car" route="route_4" depart="571.12" />
    <vehicle id="veh_323" type="standard_car" route="route_0" depart="572.40" />
    <vehicle id="veh_324" type="standard_car" route="route_9" depart="572.69" />
    <vehicle id="veh_325" type="standard_car" route="route_9" depart="572.99" />
    <vehicle id="veh_326" type="standard_car" route="route_11" depart="575.46" />
    <vehicle id="veh_327" type="standard_car" route="route_9" depart="575.61" />
    <vehicle id="veh_328" type="standard_car" route="route_10" depart="578.03" />
    <vehicle id="veh_329" type="standard_car" route="route_7" depart="579.04" />
    <vehicle id="veh_330" type="standard_car" route="route_4" depart="580.45" />
    <vehicle id="veh_331" type="standard_car" route="route_10" depart="581.36" />
    <vehicle id="veh_332" type="standard_car" route="route_6" depart="584.84" />
    <vehicle id="veh_333" type="standard_car" route="route_10" depart="585.11" />
    <vehicle id="veh_334" type="standard_car" route="route_10" depart="586.11" />
    <vehicle id="veh_335" type="standard_car" route="route_1" depart="587.36" />
    <vehicle id="veh_336" type="standard_car" route="route_4" depart="589.66" />
    <vehicle id="veh_337" type="standard_car" route="route_0" depart="593.57" />
    <vehicle id="veh_338" type="standard_car" route="route_4" depart="597.59" />
    <vehicle id="veh_339" type="standard_car" route="route_1" depart="597.73" />
    <vehicle id="veh_340" type="standard_car" route="route_0" depart="600.11" />
    <vehicle id="veh_341" type="standard_car" route="route_11" depart="600.26" />
    <vehicle id="veh_342" type="standard_car" route="route_6" depart="601.20" />
    <vehicle id="veh_343" type="standard_car" route="route_10" depart="601.94" />
    <vehicle id="veh_344" type="standard_car" route="route_9" depart="602.50" />
    <vehicle id="veh_345" type="standard_car" route="route_9" depart="604.20" />
    <vehicle id="veh_346" type="standard_car" route="route_5" depart="604.62" />
    <vehicle id="veh_347" type="standard_car" route="route_10" depart="607.84" />
    <vehicle id="veh_348" type="standard_car" route="route_5" depart="615.75" />
    <vehicle id="veh_349" type="standard_car" route="route_10" depart="615.75" />
    <vehicle id="veh_350" type="standard_car" route="route_1" depart="617.09" />
    <vehicle id="veh_351" type="standard_car" route="route_10" depart="617.96" />
    <vehicle id="veh_352" type="standard_car" route="route_0" depart="618.67" />
    <vehicle id="veh_353" type="standard_car" route="route_0" depart="619.85" />
    <vehicle id="veh_354" type="standard_car" route="route_6" depart="623.74" />
    <vehicle id="veh_355" type="standard_car" route="route_1" depart="624.07" />
    <vehicle id="veh_356" type="standard_car" route="route_0" depart="624.12" />
    <vehicle id="veh_357" type="standard_car" route="route_6" depart="631.95" />
    <vehicle id="veh_358" type="standard_car" route="route_8" depart="634.63" />
    <vehicle id="veh_359" type="standard_car" route="route_6" depart="636.05" />
    <vehicle id="veh_360" type="standard_car" route="route_10" depart="636.82" />
    <vehicle id="veh_361" type="standard_car" route="route_3" depart="639.60" />
    <vehicle id="veh_362" type="standard_car" route="route_5" depart="639.82" />
    <vehicle id="veh_363" type="standard_car" route="route_10" depart="641.64" />