<routes>
    <vType id="standard_car" accel="0.8" decel="4.5" length="5.0" />

    <route id="route_0" edges="t2c c2b" />
    <route id="route_1" edges="t2c c2l" />
    <route id="route_2" edges="t2c c2r" />
    <route id="route_3" edges="b2c c2t" />
    <route id="route_4" edges="b2c c2l" />
    <route id="route_5" edges="b2c c2r" />
    <route id="route_6" edges="l2c c2r" />
    <route id="route_7" edges="l2c c2t" />
    <route id="route_8" edges="l2c c2b" />
    <route id="route_9" edges="r2c c2l" />
    <route id="route_10" edges="r2c c2t" />
    <route id="route_11" edges="r2c c2b" />

    <vehicle id="veh_0" type="standard_car" route="route_3" depart="4.06" />
    <vehicle id="veh_1" type="standard_car" route="route_5" depart="8.02" />
    <vehicle id="veh_2" type="standard_car" route="route_2" depart="14.61" />
    <vehicle id="veh_3" type="standard_car" route="route_9" depart="15.42" />
    <vehicle id="veh_4" type="standard_car" route="route_10" depart="17.49" />
    <vehicle id="veh_5" type="standard_car" route="route_5" depart="19.37" />
    <vehicle id="veh_6" type="standard_car" route="route_4" depart="22.36" />
    <vehicle id="veh_7" type="standard_car" route="route_1" depart="25.33" />
    <vehicle id="veh_8" type="standard_car" route="route_11" depart="30.32" />
    <vehicle id="veh_9" type="standard_car" route="route_7" depart="32.03" />
    <vehicle id="veh_10" type="standard_car" route="route_10" depart="33.56" />
    <vehicle id="veh_11" type="standard_car" route="route_9" depart="35.06" />
    <vehicle id="veh_12" type="standard_car" route="route_7" depart="39.78" />
    <vehicle id="veh_13" type="standard_car" route="route_4" depart="40.82" />
    <vehicle id="veh_14" type="standard_car" route="route_3" depart="40.96" />
    <vehicle id="veh_15" type="standard_car" route="route_2" depart="40.96" />
    <vehicle id="veh_16" type="standard_car" route="route_2" depart="42.33" />
    <vehicle id="veh_17" type="standard_car" route="route_1" depart="42.71" />
    <vehicle id="veh_18" type="standard_car" route="route_10" depart="43.70" />
    <vehicle id="veh_19" type="standard_car" route="route_7" depart="46.83" />
    <vehicle id="veh_20" type="standard_car" route="route_11" depart="47.47" />
    <vehicle id="veh_21" type="standard_car" route="route_4" depart="48.59" />
    <vehicle id="veh_22" type="standard_car" route="route_5" depart="49.16" />
    <vehicle id="veh_23" type="standard_car" route="route_8" depart="52.77" />
    <vehicle id="veh_24" type="standard_car" route="route_9" depart="54.27" />
    <vehicle id="veh_25" type="standard_car" route="route_8" depart="55.79" />
    <vehicle id="veh_26" type="standard_car" route="route_3" depart="56.99" />
    <vehicle id="veh_27" type="standard_car" route="route_3" depart="59.74" />
    <vehicle id="veh_28" type="standard_car" route="route_3" depart="61.58" />
    <vehicle id="veh_29" type="standard_car" route="route_2" depart="62.83" />
    <vehicle id="veh_30" type="standard_car" route="route_1" depart="66.35" />
    <vehicle id="veh_31" type="standard_car" route="route_9" depart="67.30" />
    <vehicle id="veh_32" type="standard_car" route="route_3" depart="67.45" />
    <vehicle id="veh_33" type="standard_car" route="route_5" depart="67.89" />
    <vehicle id="veh_34" type="standard_car" route="route_0" depart="69.74" />
    <vehicle id="veh_35" type="standard_car" route="route_1" depart="71.07" />
    <vehicle id="veh_36" type="standard_car" route="route_9" depart="71.94" />
    <vehicle id="veh_37" type="standard_car" route="route_3" depart="73.16" />
    <vehicle id="veh_38" type="standard_car" route="route_5" depart="74.97" />
    <vehicle id="veh_39" type="standard_car" route="route_11" depart="78.22" />
    <vehicle id="veh_40" type="standard_car" route="route_4" depart="81.54" />
    <vehicle id="veh_41" type="standard_car" route="route_11" depart="82.81" />
    <vehicle id="veh_42" type="standard_car" route="route_7" depart="84.02" />
    <vehicle id="veh_43" type="standard_car" route="route_4" depart="84.32" />
    <vehicle id="veh_44" type="standard_car" route="route_5" depart="84.34" />
    <vehicle id="veh_45" type="standard_car" route="route_4" depart="88.99" />
    <vehicle id="veh_46" type="standard_car" route="route_5" depart="89.53" />
    <vehicle id="veh_47" type="standard_car" route="route_10" depart="89.97" />
    <vehicle id="veh_48" type="standard_car" route="route_6" depart="91.83" />
    <vehicle id="veh_49" type="standard_car" route="route_7" depart="93.89" />
    <vehicle id="veh_50" type="standard_car" route="route_3" depart="96.75" />
    <vehicle id="veh_51" type="standard_car" route="route_8" depart="97.39" />
    <vehicle id="veh_52" type="standard_car" route="route_9" depart="98.03" />
    <vehicle id="veh_53" type="standard_car" route="route_7" depart="98.73" />
    <vehicle id="veh_54" type="standard_car" route="route_11" depart="102.84" />
    <vehicle id="veh_55" type="standard_car" route="route_1" depart="103.25" />
    <vehicle id="veh_56" type="standard_car" route="route_6" depart="104.94" />
    <vehicle id="veh_57" type="standard_car" route="route_8" depart="105.21" />
    <vehicle id="veh_58" type="standard_car" route="route_4" depart="106.96" />
    <vehicle id="veh_59" type="standard_car" route="route_9" depart="107.50" />
    <vehicle id="veh_60" type="standard_car" route="route_0" depart="110.46" />
    <vehicle id="veh_61" type="standard_car" route="route_4" depart="117.42" />
    <vehicle id="veh_62" type="standard_car" route="route_4" depart="118.84" />
    <vehicle id="veh_63" type="standard_car" route="route_10" depart="119.56" />
    <vehicle id="veh_64" type="standard_car" route="route_1" depart="120.29" />
    <vehicle id="veh_65" type="standard_car" route="route_0" depart="120.57" />
    <vehicle id="veh_66" type="standard_car" route="route_2" depart="120.67" />
    <vehicle id="veh_67" type="standard_car" route="route_5" depart="123.95" />
    <vehicle id="veh_68" type="standard_car" route="route_8" depart="124.37" />
    <vehicle id="veh_69" type="standard_car" route="route_8" depart="125.32" />
    <vehicle id="veh_70" type="standard_car" route="route_2" depart="127.93" />
    <vehicle id="veh_71" type="standard_car" route="route_10" depart="135.44" />
    <vehicle id="veh_72" type="standard_car" route="route_7" depart="137.00" />
    <vehicle id="veh_73" type="standard_car" route="route_9" depart="138.39" />
    <vehicle id="veh_74" type="standard_car" route="route_2" depart="140.22" />
    <vehicle id="veh_75" type="standard_car" route="route_3" depart="144.54" />
    <vehicle id="veh_76" type="standard_car" route="route_8" depart="146.49" />
    <vehicle id="veh_77" type="standard_car" route="route_8" depart="147.93" />
    <vehicle id="veh_78" type="standard_car" route="route_8" depart="151.09" />
    <vehicle id="veh_79" type="standard_car" route="route_5" depart="151.30" />
    <vehicle id="veh_80" type="standard_car" route="route_7" depart="152.50" />
    <vehicle id="veh_81" type="standard_car" route="route_3" depart="154.07" />
    <vehicle id="veh_82" type="standard_car" route="route_3" depart="156.15" />
    <vehicle id="veh_83" type="standard_car" route="route_9" depart="157.83" />
    <vehicle id="veh_84" type="standard_car" route="route_7" depart="162.01" />
    <vehicle id="veh_85" type="standard_car" route="route_11" depart="162.45" />
    <vehicle id="veh_86" type="standard_car" route="route_4" depart="162.98" />
    <vehicle id="veh_87" type="standard_car" route="route_8" depart="167.06" />
    <vehicle id="veh_88" type="standard_car" route="route_8" depart="167.23" />
    <vehicle id="veh_89" type="standard_car" route="route_4" depart="167.72" />
    <vehicle id="veh_90" type="standard_car" route="route_11" depart="169.93" />
    <vehicle id="veh_91" type="standard_car" route="route_11" depart="171.92" />
    <vehicle id="veh_92" type="standard_car" route="route_3" depart="174.73" />
    <vehicle id="veh_93" type="standard_car" route="route_6" depart="175.62" />
    <vehicle id="veh_94" type="standard_car" route="route_5" depart="176.46" />
    <vehicle id="veh_95" type="standard_car" route="route_6" depart="177.09" />
    <vehicle id="veh_96" type="standard_car" route="route_1" depart="178.36" />
    <vehicle id="veh_97" type="standard_car" route="route_0" depart="178.85" />
    <vehicle id="veh_98" type="standard_car" route="route_10" depart="180.01" />
    <vehicle id="veh_99" type="standard_car" route="route_4" depart="181.43" />
    <vehicle id="veh_100" type="standard_car" route="route_8" depart="188.95" />
    <vehicle id="veh_101" type="standard_car" route="route_8" depart="190.18" />
    <vehicle id="veh_102" type="standard_car" route="route_4" depart="190.44" />
    <vehicle id="veh_103" type="standard_car" route="route_5" depart="190.60" />
    <vehicle id="veh_104" type="standard_car" route="route_5" depart="191.26" />
    <vehicle id="veh_105" type="standard_car" route="route_4" depart="192.03" />
    <vehicle id="veh_106" type="standard_car" route="route_6" depart="192.16" />
    <vehicle id="veh_107" type="standard_car" route="route_11" depart="193.62" />
    <vehicle id="veh_108" type="standard_car" route="route_0" depart="197.55" />
    <vehicle id="veh_109" type="standard_car" route="route_8" depart="201.23" />
    <vehicle id="veh_110" type="standard_car" route="route_7" depart="203.08" />
    <vehicle id="veh_111" type="standard_car" route="route_1" depart="203.43" />
    <vehicle id="veh_112" type="standard_car" route="route_0" depart="204.97" />
    <vehicle id="veh_113" type="standard_car" route="route_7" depart="207.17" />
    <vehicle id="veh_114" type="standard_car" route="route_11" depart="208.30" />
    <vehicle id="veh_115" type="standard_car" route="route_5" depart="209.08" />
    <vehicle id="veh_116" type="standard_car" route="route_10" depart="209.19" />
    <vehicle id="veh_117" type="standard_car" route="route_1" depart="211.88" />
    <vehicle id="veh_118" type="standard_car" route="route_3" depart="216.77" />
    <vehicle id="veh_119" type="standard_car" route="route_2" depart="218.74" />
    <vehicle id="veh_120" type="standard_car" route="route_3" depart="220.95" />
    <vehicle id="veh_121" type="standard_car" route="route_1" depart="222.80" />
    <vehicle id="veh_122" type="standard_car" route="route_3" depart="223.01" />
    <vehicle id="veh_123" type="standard_car" route="route_5" depart="223.32" />
    <vehicle id="veh_124" type="standard_car" route="route_1" depart="223.59" />
    <vehicle id="veh_125" type="standard_car" route="route_7" depart="226.37" />
    <vehicle id="veh_126" type="standard_car" route="route_8" depart="227.78" />
    <vehicle id="veh_127" type="standard_car" route="route_8" depart="228.44" />
    <vehicle id="veh_128" type="standard_car" route="route_0" depart="229.86" />
    <vehicle id="veh_129" type="standard_car" route="route_11" depart="233.82" />
    <vehicle id="veh_130" type="standard_car" route="route_4" depart="235.76" />
    <vehicle id="veh_131" type="standard_car" route="route_4" depart="236.30" />
    <vehicle id="veh_132" type="standard_car" route="route_7" depart="239.10" />
    <vehicle id="veh_133" type="standard_car" route="route_10" depart="243.73" />
    <vehicle id="veh_134" type="standard_car" route="route_4" depart="247.63" />
    <vehicle id="veh_135" type="standard_car" route="route_10" depart="249.66" />
    <vehicle id="veh_136" type="standard_car" route="route_10" depart="251.15" />
    <vehicle id="veh_137" type="standard_car" route="route_0" depart="252.94" />
    <vehicle id="veh_138" type="standard_car" route="route_8" depart="254.83" />
    <vehicle id="veh_139" type="standard_car" route="route_2" depart="255.37" />
    <vehicle id="veh_140" type="standard_car" route="route_11" depart="257.39" />
    <vehicle id="veh_141" type="standard_car" route="route_10" depart="258.49" />
    <vehicle id="veh_142" type="standard_car" route="route_11" depart="258.82" />
    <vehicle id="veh_143" type="standard_car" route="route_2" depart="260.44" />
    <vehicle id="veh_144" type="standard_car" route="route_6" depart="260.49" />
    <vehicle id="veh_145" type="standard_car" route="route_6" depart="265.86" />
    <vehicle id="veh_146" type="standard_car" route="route_7" depart="266.90" />
    <vehicle id="veh_147" type="standard_car" route="route_5" depart="268.58" />
    <vehicle id="veh_148" type="standard_car" route="route_4" depart="274.14" />
    <vehicle id="veh_149" type="standard_car" route="route_10" depart="275.16" />
    <vehicle id="veh_150" type="standard_car" route="route_4" depart="279.87" />
    <vehicle id="veh_151" type="standard_car" route="route_7" depart="280.35" />
    <vehicle id="veh_152" type="standard_car" route="route_6" depart="280.45" />
    <vehicle id="veh_153" type="standard_car" route="route_7" depart="281.79" />
    <vehicle id="veh_154" type="standard_car" route="route_9" depart="282.19" />
    <vehicle id="veh_155" type="standard_car" route="route_9" depart="288.74" />
    <vehicle id="veh_156" type="standard_car" route="route_5" depart="290.40" />
    <vehicle id="veh_157" type="standard_car" route="route_6" depart="292.58" />
    <vehicle id="veh_158" type="standard_car" route="route_0" depart="292.67" />
    <vehicle id="veh_159" type="standard_car" route="route_10" depart="293.14" />
    <vehicle id="veh_160" type="standard_car" route="route_4" depart="300.15" />
    <vehicle id="veh_161" type="standard_car" route="route_4" depart="302.21" />
    <vehicle id="veh_162" type="standard_car" route="route_5" depart="302.47" />
    <vehicle id="veh_163" type="standard_car" route="route_6" depart="303.02" />
    <vehicle id="veh_164" type="standard_car" route="route_10" depart="303.79" />
    <vehicle id="veh_165" type="standard_car" route="route_4" depart="304.32" />
    <vehicle id="veh_166" type="standard_car" route="route_10" depart="306.18" />
    <vehicle id="veh_167" type="standard_car" route="route_6" depart="309.20" />
    <vehicle id="veh_168" type="standard_car" route="route_9" depart="309.21" />
    <vehicle id="veh_169" type="standard_car" route="route_1" depart="311.19" />
    <vehicle id="veh_170" type="standard_car" route="route_11" depart="316.70" />
    <vehicle id="veh_171" type="standard_car" route="route_8" depart="317.90" />
    <vehicle id="veh_172" type="standard_car" route="route_5" depart="318.59" />
    <vehicle id="veh_173" type="standard_car" route="route_1" depart="320.26" />
    <vehicle id="veh_174" type="standard_car" route="route_7" depart="321.65" />
    <vehicle id="veh_175" type="standard_car" route="route_2" depart="323.99" />
    <vehicle id="veh_176" type="standard_car" route="route_5" depart="324.84" />
    <vehicle id="veh_177" type="standard_car" route="route_2" depart="326.00" />
    <vehicle id="veh_178" type="standard_car" route="route_0" depart="326.73" />
    <vehicle id="veh_179" type="standard_car" route="route_5" depart="328.46" />
    <vehicle id="veh_180" type="standard_car" route="route_0" depart="329.69" />
    <vehicle id="veh_181" type="standard_car" route="route_4" depart="332.88" />
    <vehicle id="veh_182" type="standard_car" route="route_5" depart="333.36" />
    <vehicle id="veh_183" type="standard_car" route="route_6" depart="334.29" />
    <vehicle id="veh_184" type="standard_car" route="route_10" depart="334.30" />
    <vehicle id="veh_185" type="standard_car" route="route_2" depart="334.50" />
    <vehicle id="veh_186" type="standard_car" route="route_10" depart="335.09" />
    <vehicle id="veh_187" type="standard_car" route="route_8" depart="335.47" />
    <vehicle id="veh_188" type="standard_car" route="route_4" depart="337.00" />
    <vehicle id="veh_189" type="standard_car" route="route_1" depart="339.11" />
    <vehicle id="veh_190" type="standard_car" route="route_2" depart="341.24" />
    <vehicle id="veh_191" type="standard_car" route="route_9" depart="341.35" />
    <vehicle id="veh_192" type="standard_car" route="route_3" depart="345.02" />
    <vehicle id="veh_193" type="standard_car" route="route_2" depart="345.54" />
    <vehicle id="veh_194" type="standard_car" route="route_11" depart="349.63" />
    <vehicle id="veh_195" type="standard_car" route="route_5" depart="356.34" />
    <vehicle id="veh_196" type="standard_car" route="route_11" depart="356.52" />
    <vehicle id="veh_197" type="standard_car" route="route_4" depart="358.62" />
    <vehicle id="veh_198" type="standard_car" route="route_10" depart="362.44" />
    <vehicle id="veh_199" type="standard_car" route="route_6" depart="365.86" />
    <vehicle id="veh_200" type="standard_car" route="route_10" depart="366.55" />
    <vehicle id="veh_201" type="standard_car" route="route_4" depart="366.99" />
    <vehicle id="veh_202" type="standard_car" route="route_10" depart="368.34" />
    <vehicle id="veh_203" type="standard_car" route="route_11" depart="368.48" />
    <vehicle id="veh_204" type="standard_car" route="route_4" depart="368.78" />
    <vehicle id="veh_205" type="standard_car" route="route_2" depart="370.29" />
    <vehicle id="veh_206" type="standard_car" route="route_4" depart="373.47" />
    <vehicle id="veh_207" type="standard_car" route="route_3" depart="374.96" />
    <vehicle id="veh_208" type="standard_car" route="route_11" depart="380.18" />
    <vehicle id="veh_209" type="standard_car" route="route_5" depart="385.16" />
    <vehicle id="veh_210" type="standard_car" route="route_9" depart="385.51" />
    <vehicle id="veh_211" type="standard_car" route="route_9" depart="389.75" />
    <vehicle id="veh_212" type="standard_car" route="route_0" depart="399.81" />
    <vehicle id="veh_213" type="standard_car" route="route_4" depart="400.22" />
    <vehicle id="veh_214" type="standard_car" route="route_8" depart="400.90" />
    <vehicle id="veh_215" type="standard_car" route="route_4" depart="402.82" />
    <vehicle id="veh_216" type="standard_car" route="route_1" depart="405.89" />
    <vehicle id="veh_217" type="standard_car" route="route_11" depart="407.54" />
    <vehicle id="veh_218" type="standard_car" route="route_8" depart="412.42" />
    <vehicle id="veh_219" type="standard_car" route="route_8" depart="412.78" />
    <vehicle id="veh_220" type="standard_car" route="route_3" depart="415.22" />
    <vehicle id="veh_221" type="standard_car" route="route_5" depart="422.05" />
    <vehicle id="veh_222" type="standard_car" route="route_7" depart="426.63" />
    <vehicle id="veh_223" type="standard_car" route="route_7" depart="428.27" />
    <vehicle id="veh_224" type="standard_car" route="route_6" depart="430.28" />
    <vehicle id="veh_225" type="standard_car" route="route_5" depart="430.79" />
    <vehicle id="veh_226" type="standard_car" route="route_7" depart="430.94" />
    <vehicle id="veh_227" type="standard_car" route="route_5" depart="431.42" />
    <vehicle id="veh_228" type="standard_car" route="route_1" depart="435.74" />
    <vehicle id="veh_229" type="standard_car" route="route_4" depart="436.37" />
    <vehicle id="veh_230" type="standard_car" route="route_6" depart="440.38" />
    <vehicle id="veh_231" type="standard_car" route="route_8" depart="440.54" />
    <vehicle id="veh_232" type="standard_car" route="route_5" depart="441.87" />
    <vehicle id="veh_233" type="standard_car" route="route_1" depart="444.90" />
    <vehicle id="veh_234" type="standard_car" route="route_11" depart="449.25" />
    <vehicle id="veh_235" type="standard_car" route="route_7" depart="453.01" />
    <vehicle id="veh_236" type="standard_car" route="route_4" depart="454.47" />
    <vehicle id="veh_237" type="standard_car" route="route_11" depart="458.42" />
    <vehicle id="veh_238" type="standard_car" route="route_5" depart="460.95" />
    <vehicle id="veh_239" type="standard_car" route="route_9" depart="461.40" />
    <vehicle id="veh_240" type="standard_car" route="route_4" depart="461.65" />
    <vehicle id="veh_241" type="standard_car" route="route_8" depart="464.99" />
    <vehicle id="veh_242" type="standard_car" route="route_11" depart="467.43" />
    <vehicle id="veh_243" type="standard_car" route="route_4" depart="467.66" />
    <vehicle id="veh_244" type="standard_car" route="route_2" depart="468.55" />
    <vehicle id="veh_245" type="standard_car" route="route_6" depart="468.69" />
    <vehicle id="veh_246" type="standard_car" route="route_7" depart="468.90" />
    <vehicle id="veh_247" type="standard_car" route="route_8" depart="470.14" />
    <vehicle id="veh_248" type="standard_car" route="route_6" depart="471.71" />
    <vehicle id="veh_249" type="standard_car" route="route_9" depart="471.95" />
    <vehicle id="veh_250" type="standard_car" route="route_8" depart="473.37" />
    <vehicle id="veh_251" type="standard_car" route="route_0" depart="486.97" />
    <vehicle id="veh_252" type="standard_car" route="route_0" depart="488.36" />
    <vehicle id="veh_253" type="standard_car" route="route_8" depart="489.04" />
    <vehicle id="veh_254" type="standard_car" route="route_2" depart="489.18" />
    <vehicle id="veh_255" type="standard_car" route="route_11" depart="491.98" />
    <vehicle id="veh_256" type="standard_car" route="route_11" depart="494.52" />
    <vehicle id="veh_257" type="standard_car" route="route_9" depart="498.31" />
    <vehicle id="veh_258" type="standard_car" route="route_9" depart="500.06" />
    <vehicle id="veh_259" type="standard_car" route="route_3" depart="501.73" />
    <vehicle id="veh_260" type="standard_car" route="route_5" depart="505.87" />
    <vehicle id="veh_261" type="standard_car" route="route_10" depart="506.50" />
    <vehicle id="veh_262" type="standard_car" route="route_9" depart="507.03" />
    <vehicle id="veh_263" type="standard_car" route="route_4" depart="508.29" />
    <vehicle id="veh_264" type="standard_car" route="route_3" depart="510.93" />
    <vehicle id="veh_265" type="standard_car" route="route_8" depart="513.52" />
    <vehicle id="veh_266" type="standard_car" route="route_7" depart="514.68" />
    <vehicle id="veh_267" type="standard_car" route="route_9" depart="515.16" />
    <vehicle id="veh_268" type="standard_car" route="route_8" depart="515.92" />
    <vehicle id="veh_269" type="standard_car" route="route_11" depart="524.29" />
    <vehicle id="veh_270" type="standard_car" route="route_11" depart="525.20" />
    <vehicle id="veh_271" type="standard_car" route="route_8" depart="525.66" />
    <vehicle id="veh_272" type="standard_car" route="route_5" depart="526.07" />
    <vehicle id="veh_273" type="standard_car" route="route_8" depart="526.40" />
    <vehicle id="veh_274" type="standard_car" route="route_0" depart="526.94" />
    <vehicle id="veh_275" type="standard_car" route="route_1" depart="528.17" />
    <vehicle id="veh_276" type="standard_car" route="route_11" depart="536.35" />
    <vehicle id="veh_277" type="standard_car" route="route_11" depart="537.74" />
    <vehicle id="veh_278" type="standard_car" route="route_0" depart="539.57" />
    <vehicle id="veh_279" type="standard_car" route="route_0" depart="540.75" />
    <vehicle id="veh_280" type="standard_car" route="route_2" depart="545.30" />
    <vehicle id="veh_281" type="standard_car" route="route_2" depart="546.96" />
    <vehicle id="veh_282" type="standard_car" route="route_6" depart="547.30" />
    <vehicle id="veh_283" type="standard_car" route="route_5" depart="549.62" />
    <vehicle id="veh_284" type="standard_car" route="route_7" depart="550.82" />
    <vehicle id="veh_285" type="standard_car" route="route_0" depart="554.96" />
    <vehicle id="veh_286" type="standard_car" route="route_10" depart="559.39" />
    <vehicle id="veh_287" type="standard_car" route="route_4" depart="561.49" />
    <vehicle id="veh_288" type="standard_car" route="route_8" depart="561.72" />
    <vehicle id="veh_289" type="standard_car" route="route_8" depart="563.11" />
    <vehicle id="veh_290" type="standard_car" route="route_9" depart="565.43" />
    <vehicle id="veh_291" type="standard_car" route="route_6" depart="565.99" />
    <vehicle id="veh_292" type="standard_car" route="route_10" depart="566.38" />
    <vehicle id="veh_293" type="standard_car" route="route_9" depart="566.40" />
    <vehicle id="veh_294" type="standard_car" route="route_5" depart="566.73" />
    <vehicle id="veh_295" type="standard_car" route="route_3" depart="572.47" />
    <vehicle id="veh_296" type="standard_car" route="route_5" depart="572.70" />
    <vehicle id="veh_297" type="standard_car" route="route_8" depart="573.07" />
    <vehicle id="veh_298" type="standard_car" route="route_8" depart="578.22" />
    <vehicle id="veh_299" type="standard_car" route="route_6" depart="578.26" />
    <vehicle id="veh_300" type="standard_car" route="route_3" depart="578.50" />
    <vehicle id="veh_301" type="standard_car" route="route_4" depart="582.14" />
    <vehicle id="veh_302" type="standard_car" route="route_4" depart="592.30" />
    <vehicle id="veh_303" type="standard_car" route="route_6" depart="593.74" />
    <vehicle id="veh_304" type="standard_car" route="route_4" depart="594.57" />
    <vehicle id="veh_305" type="standard_car" route="route_10" depart="594.84" />
    <vehicle id="veh_306" type="standard_car" route="route_8" depart="596.46" />
    <vehicle id="veh_307" type="standard_car" route="route_8" depart="597.85" />
    <vehicle id="veh_308" type="standard_car" route="route_1" depart="598.95" />
    <vehicle id="veh_309" type="standard_car" route="route_3" depart="600.21" />
    <vehicle id="veh_310" type="standard_car" route="route_7" depart="600.53" />
    <vehicle id="veh_311" type="standard_car" route="route_7" depart="600.98" />
    <vehicle id="veh_312" type="standard_car" route="route_11" depart="601.45" />
    <vehicle id="veh_313" type="standard_car" route="route_10" depart="602.49" />
    <vehicle id="veh_314" type="standard_car" route="route_11" depart="602.81" />
    <vehicle id="veh_315" type="standard_car" route="route_2" depart="603.16" />
    <vehicle id="veh_316" type="standard_car" route="route_10" depart="603.44" />
    <vehicle id="veh_317" type="standard_car" route="route_6" depart="609.80" />
    <vehicle id="veh_318" type="standard_car" route="route_2" depart="610.25" />
    <vehicle id="veh_319" type="standard_car" route="route_7" depart="610.82" />
    <vehicle id="veh_320" type="standard_car" route="route_7" depart="610.96" />
    <vehicle id="veh_321" type="standard_car" route="route_4" depart="611.72" />
    <vehicle id="veh_322" type="standard_car" route="route_1" depart="611.87" />
    <vehicle id="veh_323" type="standard_car" route="route_3" depart="612.21" />
    <vehicle id="veh_324" type="standard_car" route="route_1" depart="613.41" />
    <vehicle id="veh_325" type="standard_car" route="route_5" depart="614.60" />
    <vehicle id="veh_326" type="standard_car" route="route_1" depart="614.65" />
    <vehicle id="veh_327" type="standard_car" route="route_5" depart="615.63" />
    <vehicle id="veh_328" type="standard_car" route="route_5" depart="621.35" />
    <vehicle id="veh_329" type="standard_car" route="route_3" depart="627.31" />
    <vehicle id="veh_330" type="standard_car" route="route_2" depart="628.88" />
    <vehicle id="veh_331" type="standard_car" route="route_1" depart="629.07" />
    <vehicle id="veh_332" type="standard_car" route="route_2" depart="630.54" />
    <vehicle id="veh_333" type="standard_car" route="route_1" depart="633.85" />
    <vehicle id="veh_334" type="standard_car" route="route_7" depart="634.97" />
    <vehicle id="veh_335" type="standard_car" route="route_3" depart="640.47" />
    <vehicle id="veh_336" type="standard_car" route="route_1" depart="643.24" />
    <vehicle id="veh_337" type="standard_car" route="route_0" depart="643.48" />
    <vehicle id="veh_338" type="standard_car" route="route_8" depart="648.96" />
    <vehicle id="veh_339" type="standard_car" route="route_7" depart="650.05" />
    <vehicle id="veh_340" type="standard_car" route="route_1" depart="650.86" />
    <vehicle id="veh_341" type="standard_car" route="route_3" depart="651.58" />
    <vehicle id="veh_342" type="standard_car" route="route_5" depart="655.75" />
    <vehicle id="veh_343" type="standard_car" route="route_3" depart="656.24" />
    <vehicle id="veh_344" type="standard_car" route="route_3" depart="657.43" />
    <vehicle id="veh_345" type="standard_car" route="route_7" depart="657.54" />
    <vehicle id="veh_346" type="standard_car" route="route_9" depart="659.07" />
    <vehicle id="veh_347" type="standard_car" route="route_0" depart="661.22" />
    <vehicle id="veh_348" type="standard_car" route="route_6" depart="661.44" />
    <vehicle id="veh_349" type="standard_car" route="route_4" depart="661.83" />
    <vehicle id="veh_350" type="standard_car" route="route_10" depart="662.31" />
    <vehicle id="veh_351" type="standard_car" route="route_7" depart="663.43" />
    <vehicle id="veh_352" type="standard_car" route="route_4" depart="664.45" />
    <vehicle id="veh_353" type="standard_car" route="route_7" depart="665.39" />
    <vehicle id="veh_354" type="standard_car" route="route_1" depart="665.62" />
    <vehicle id="veh_355" type="standard_car" route="route_9" depart="666.87" />
    <vehicle id="veh_356" type="standard_car" route="route_3" depart="670.69" />
    <vehicle id="veh_357" type="standard_car" route="route_9" depart="673.36" />
    <vehicle id="veh_358" type="standard_car" route="route_9" depart="674.12" />
    <vehicle id="veh_359" type="standard_car" route="route_6" depart="679.24" />
    <vehicle id="veh_360" type="standard_car" route="route_10" depart="679.73" />
    <vehicle id="veh_361" type="standard_car" route="route_5" depart="682.17" />
    <vehicle id="veh_362" type="standard_car" route="route_5" depart="682.23" />
    <vehicle id="veh_363" type="standard_car" route="route_0" depart="684.11" />