<?xml version="1.0" encoding="UTF-8"?>
<!-- Auto-generated Traffic Pattern Library -->
<!-- Total Duration: 2880s (0.8 hours) -->
<!-- Network: cross.net.xml -->
<routes>
    <vType id="passenger" accel="0.8" decel="4.5" length="5.0" minGap="2.5" maxSpeed="13.89" vClass="passenger" speedFactor="1.0" speedDev="0.1" jmIgnoreJunctionFoeProb="1.0" jmIgnoreKeepClearTime="-1" />

    <route id="route_0" edges="b2c c2r" />
    <route id="route_1" edges="b2c c2t" />
    <route id="route_2" edges="b2c c2t" />
    <route id="route_3" edges="b2c c2l" />
    <route id="route_4" edges="b2c c2b" />
    <route id="route_5" edges="c2b b2c" />
    <route id="route_6" edges="c2l l2c" />
    <route id="route_7" edges="c2r r2c" />
    <route id="route_8" edges="c2t t2c" />
    <route id="route_9" edges="l2c c2b" />
    <route id="route_10" edges="l2c c2r" />
    <route id="route_11" edges="l2c c2r" />
    <route id="route_12" edges="l2c c2t" />
    <route id="route_13" edges="l2c c2l" />
    <route id="route_14" edges="r2c c2t" />
    <route id="route_15" edges="r2c c2l" />
    <route id="route_16" edges="r2c c2l" />
    <route id="route_17" edges="r2c c2b" />
    <route id="route_18" edges="r2c c2r" />
    <route id="route_19" edges="t2c c2l" />
    <route id="route_20" edges="t2c c2b" />
    <route id="route_21" edges="t2c c2b" />
    <route id="route_22" edges="t2c c2r" />
    <route id="route_23" edges="t2c c2t" />


    <!-- Segment 1: BALANCED (DIR_A=1.0x DIR_B=1.0x DIR_C=1.0x DIR_D=1.0x DIR_E=1.0x DIR_F=1.0x DIR_G=1.0x DIR_H=1.0x) | 0-240s -->
    <vehicle id="veh_0" type="passenger" route="route_1" depart="2.74" />
    <vehicle id="veh_1" type="passenger" route="route_14" depart="6.44" />
    <vehicle id="veh_2" type="passenger" route="route_2" depart="7.66" />
    <vehicle id="veh_3" type="passenger" route="route_7" depart="10.54" />
    <vehicle id="veh_4" type="passenger" route="route_20" depart="13.39" />
    <vehicle id="veh_5" type="passenger" route="route_23" depart="13.58" />
    <vehicle id="veh_6" type="passenger" route="route_6" depart="13.95" />
    <vehicle id="veh_7" type="passenger" route="route_16" depart="15.47" />
    <vehicle id="veh_8" type="passenger" route="route_20" depart="16.00" />
    <vehicle id="veh_9" type="passenger" route="route_5" depart="23.62" />
    <vehicle id="veh_10" type="passenger" route="route_1" depart="25.42" />
    <vehicle id="veh_11" type="passenger" route="route_4" depart="25.46" />
    <vehicle id="veh_12" type="passenger" route="route_11" depart="31.77" />
    <vehicle id="veh_13" type="passenger" route="route_16" depart="32.14" />
    <vehicle id="veh_14" type="passenger" route="route_21" depart="32.47" />
    <vehicle id="veh_15" type="passenger" route="route_21" depart="33.91" />
    <vehicle id="veh_16" type="passenger" route="route_16" depart="35.04" />
    <vehicle id="veh_17" type="passenger" route="route_2" depart="37.50" />
    <vehicle id="veh_18" type="passenger" route="route_11" depart="39.41" />
    <vehicle id="veh_19" type="passenger" route="route_5" depart="41.89" />
    <vehicle id="veh_20" type="passenger" route="route_20" depart="42.11" />
    <vehicle id="veh_21" type="passenger" route="route_19" depart="42.58" />
    <vehicle id="veh_22" type="passenger" route="route_11" depart="43.16" />
    <vehicle id="veh_23" type="passenger" route="route_18" depart="43.23" />
    <vehicle id="veh_24" type="passenger" route="route_2" depart="44.32" />
    <vehicle id="veh_25" type="passenger" route="route_13" depart="48.73" />
    <vehicle id="veh_26" type="passenger" route="route_5" depart="49.07" />
    <vehicle id="veh_27" type="passenger" route="route_4" depart="51.93" />
    <vehicle id="veh_28" type="passenger" route="route_6" depart="53.24" />
    <vehicle id="veh_29" type="passenger" route="route_14" depart="53.75" />
    <vehicle id="veh_30" type="passenger" route="route_21" depart="57.28" />
    <vehicle id="veh_31" type="passenger" route="route_1" depart="66.64" />
    <vehicle id="veh_32" type="passenger" route="route_18" depart="67.98" />
    <vehicle id="veh_33" type="passenger" route="route_20" depart="69.49" />
    <vehicle id="veh_34" type="passenger" route="route_1" depart="76.75" />
    <vehicle id="veh_35" type="passenger" route="route_7" depart="77.61" />
    <vehicle id="veh_36" type="passenger" route="route_1" depart="80.25" />
    <vehicle id="veh_37" type="passenger" route="route_21" depart="81.99" />
    <vehicle id="veh_38" type="passenger" route="route_11" depart="82.07" />
    <vehicle id="veh_39" type="passenger" route="route_21" depart="84.86" />
    <vehicle id="veh_40" type="passenger" route="route_6" depart="86.78" />
    <vehicle id="veh_41" type="passenger" route="route_20" depart="86.92" />
    <vehicle id="veh_42" type="passenger" route="route_11" depart="87.11" />
    <vehicle id="veh_43" type="passenger" route="route_19" depart="87.39" />
    <vehicle id="veh_44" type="passenger" route="route_10" depart="88.32" />
    <vehicle id="veh_45" type="passenger" route="route_23" depart="88.39" />
    <vehicle id="veh_46" type="passenger" route="route_2" depart="90.11" />
    <vehicle id="veh_47" type="passenger" route="route_10" depart="90.77" />
    <vehicle id="veh_48" type="passenger" route="route_20" depart="99.62" />
    <vehicle id="veh_49" type="passenger" route="route_23" depart="101.18" />
    <vehicle id="veh_50" type="passenger" route="route_5" depart="102.84" />
    <vehicle id="veh_51" type="passenger" route="route_11" depart="102.90" />
    <vehicle id="veh_52" type="passenger" route="route_10" depart="106.42" />
    <vehicle id="veh_53" type="passenger" route="route_8" depart="107.51" />
    <vehicle id="veh_54" type="passenger" route="route_8" depart="109.22" />
    <vehicle id="veh_55" type="passenger" route="route_10" depart="112.02" />
    <vehicle id="veh_56" type="passenger" route="route_0" depart="112.81" />
    <vehicle id="veh_57" type="passenger" route="route_21" depart="115.11" />
    <vehicle id="veh_58" type="passenger" route="route_11" depart="118.01" />
    <vehicle id="veh_59" type="passenger" route="route_6" depart="120.42" />
    <vehicle id="veh_60" type="passenger" route="route_16" depart="121.34" />
    <vehicle id="veh_61" type="passenger" route="route_1" depart="122.08" />
    <vehicle id="veh_62" type="passenger" route="route_6" depart="122.92" />
    <vehicle id="veh_63" type="passenger" route="route_7" depart="125.42" />
    <vehicle id="veh_64" type="passenger" route="route_16" depart="128.72" />
    <vehicle id="veh_65" type="passenger" route="route_0" depart="130.76" />
    <vehicle id="veh_66" type="passenger" route="route_16" depart="133.41" />
    <vehicle id="veh_67" type="passenger" route="route_13" depart="135.06" />
    <vehicle id="veh_68" type="passenger" route="route_11" depart="135.68" />
    <vehicle id="veh_69" type="passenger" route="route_16" depart="141.99" />
    <vehicle id="veh_70" type="passenger" route="route_16" depart="142.32" />
    <vehicle id="veh_71" type="passenger" route="route_20" depart="148.14" />
    <vehicle id="veh_72" type="passenger" route="route_2" depart="150.70" />
    <vehicle id="veh_73" type="passenger" route="route_7" depart="151.26" />
    <vehicle id="veh_74" type="passenger" route="route_15" depart="152.14" />
    <vehicle id="veh_75" type="passenger" route="route_2" depart="155.88" />
    <vehicle id="veh_76" type="passenger" route="route_11" depart="159.64" />
    <vehicle id="veh_77" type="passenger" route="route_4" depart="162.24" />
    <vehicle id="veh_78" type="passenger" route="route_6" depart="164.92" />
    <vehicle id="veh_79" type="passenger" route="route_18" depart="165.17" />
    <vehicle id="veh_80" type="passenger" route="route_18" depart="166.16" />
    <vehicle id="veh_81" type="passenger" route="route_21" depart="166.47" />
    <vehicle id="veh_82" type="passenger" route="route_19" depart="167.38" />
    <vehicle id="veh_83" type="passenger" route="route_15" depart="168.40" />
    <vehicle id="veh_84" type="passenger" route="route_2" depart="168.54" />
    <vehicle id="veh_85" type="passenger" route="route_9" depart="170.25" />
    <vehicle id="veh_86" type="passenger" route="route_13" depart="174.48" />
    <vehicle id="veh_87" type="passenger" route="route_4" depart="175.03" />
    <vehicle id="veh_88" type="passenger" route="route_16" depart="178.59" />
    <vehicle id="veh_89" type="passenger" route="route_9" depart="182.09" />
    <vehicle id="veh_90" type="passenger" route="route_10" depart="182.35" />
    <vehicle id="veh_91" type="passenger" route="route_21" depart="182.67" />
    <vehicle id="veh_92" type="passenger" route="route_11" depart="182.96" />
    <vehicle id="veh_93" type="passenger" route="route_1" depart="184.85" />
    <vehicle id="veh_94" type="passenger" route="route_10" depart="186.23" />
    <vehicle id="veh_95" type="passenger" route="route_9" depart="191.77" />
    <vehicle id="veh_96" type="passenger" route="route_19" depart="192.75" />
    <vehicle id="veh_97" type="passenger" route="route_5" depart="196.88" />
    <vehicle id="veh_98" type="passenger" route="route_10" depart="197.32" />
    <vehicle id="veh_99" type="passenger" route="route_16" depart="202.17" />
    <vehicle id="veh_100" type="passenger" route="route_23" depart="203.35" />
    <vehicle id="veh_101" type="passenger" route="route_3" depart="205.30" />
    <vehicle id="veh_102" type="passenger" route="route_6" depart="205.32" />
    <vehicle id="veh_103" type="passenger" route="route_0" depart="207.37" />
    <vehicle id="veh_104" type="passenger" route="route_11" depart="208.84" />
    <vehicle id="veh_105" type="passenger" route="route_15" depart="209.51" />
    <vehicle id="veh_106" type="passenger" route="route_7" depart="211.74" />
    <vehicle id="veh_107" type="passenger" route="route_23" depart="212.69" />
    <vehicle id="veh_108" type="passenger" route="route_7" depart="214.53" />
    <vehicle id="veh_109" type="passenger" route="route_6" depart="214.73" />
    <vehicle id="veh_110" type="passenger" route="route_22" depart="215.35" />
    <vehicle id="veh_111" type="passenger" route="route_11" depart="217.22" />
    <vehicle id="veh_112" type="passenger" route="route_1" depart="220.66" />
    <vehicle id="veh_113" type="passenger" route="route_20" depart="223.04" />
    <vehicle id="veh_114" type="passenger" route="route_3" depart="223.55" />
    <vehicle id="veh_115" type="passenger" route="route_15" depart="223.89" />
    <vehicle id="veh_116" type="passenger" route="route_22" depart="224.31" />
    <vehicle id="veh_117" type="passenger" route="route_1" depart="225.37" />
    <vehicle id="veh_118" type="passenger" route="route_1" depart="225.88" />
    <vehicle id="veh_119" type="passenger" route="route_0" depart="226.38" />
    <vehicle id="veh_120" type="passenger" route="route_20" depart="231.15" />
    <vehicle id="veh_121" type="passenger" route="route_6" depart="231.61" />
    <vehicle id="veh_122" type="passenger" route="route_15" depart="232.65" />
    <vehicle id="veh_123" type="passenger" route="route_11" depart="234.33" />
    <vehicle id="veh_124" type="passenger" route="route_18" depart="235.17" />
    <vehicle id="veh_125" type="passenger" route="route_14" depart="236.47" />
    <vehicle id="veh_126" type="passenger" route="route_6" depart="238.96" />
    <vehicle id="veh_127" type="passenger" route="route_21" depart="239.75" />

    <!-- Segment 2: DIR_A_HEAVY (DIR_A=2.5x DIR_B=0.5x DIR_C=0.5x DIR_D=0.5x DIR_E=0.5x DIR_F=0.5x DIR_G=0.5x DIR_H=0.5x) | 240-480s -->
    <vehicle id="veh_128" type="passenger" route="route_1" depart="240.19" />
    <vehicle id="veh_129" type="passenger" route="route_7" depart="244.59" />
    <vehicle id="veh_130" type="passenger" route="route_1" depart="245.52" />
    <vehicle id="veh_131" type="passenger" route="route_3" depart="250.69" />
    <vehicle id="veh_132" type="passenger" route="route_21" depart="254.58" />
    <vehicle id="veh_133" type="passenger" route="route_2" depart="257.20" />
    <vehicle id="veh_134" type="passenger" route="route_4" depart="258.26" />
    <vehicle id="veh_135" type="passenger" route="route_19" depart="258.71" />
    <vehicle id="veh_136" type="passenger" route="route_4" depart="260.93" />
    <vehicle id="veh_137" type="passenger" route="route_1" depart="262.61" />
    <vehicle id="veh_138" type="passenger" route="route_4" depart="268.14" />
    <vehicle id="veh_139" type="passenger" route="route_1" depart="270.65" />
    <vehicle id="veh_140" type="passenger" route="route_2" depart="270.85" />
    <vehicle id="veh_141" type="passenger" route="route_3" depart="272.48" />
    <vehicle id="veh_142" type="passenger" route="route_2" depart="272.86" />
    <vehicle id="veh_143" type="passenger" route="route_1" depart="273.29" />
    <vehicle id="veh_144" type="passenger" route="route_1" depart="273.92" />
    <vehicle id="veh_145" type="passenger" route="route_19" depart="275.30" />
    <vehicle id="veh_146" type="passenger" route="route_5" depart="276.81" />
    <vehicle id="veh_147" type="passenger" route="route_0" depart="278.32" />
    <vehicle id="veh_148" type="passenger" route="route_1" depart="279.72" />
    <vehicle id="veh_149" type="passenger" route="route_1" depart="280.13" />
    <vehicle id="veh_150" type="passenger" route="route_1" depart="283.13" />
    <vehicle id="veh_151" type="passenger" route="route_14" depart="287.52" />
    <vehicle id="veh_152" type="passenger" route="route_1" depart="288.56" />
    <vehicle id="veh_153" type="passenger" route="route_2" depart="292.67" />
    <vehicle id="veh_154" type="passenger" route="route_0" depart="295.28" />
    <vehicle id="veh_155" type="passenger" route="route_1" depart="296.62" />
    <vehicle id="veh_156" type="passenger" route="route_3" depart="297.57" />
    <vehicle id="veh_157" type="passenger" route="route_1" depart="297.65" />
    <vehicle id="veh_158" type="passenger" route="route_18" depart="298.75" />
    <vehicle id="veh_159" type="passenger" route="route_16" depart="300.37" />
    <vehicle id="veh_160" type="passenger" route="route_4" depart="300.55" />
    <vehicle id="veh_161" type="passenger" route="route_2" depart="302.09" />
    <vehicle id="veh_162" type="passenger" route="route_2" depart="302.99" />
    <vehicle id="veh_163" type="passenger" route="route_1" depart="305.22" />
    <vehicle id="veh_164" type="passenger" route="route_4" depart="314.21" />
    <vehicle id="veh_165" type="passenger" route="route_2" depart="316.23" />
    <vehicle id="veh_166" type="passenger" route="route_11" depart="316.70" />
    <vehicle id="veh_167" type="passenger" route="route_1" depart="320.02" />
    <vehicle id="veh_168" type="passenger" route="route_10" depart="320.08" />
    <vehicle id="veh_169" type="passenger" route="route_0" depart="321.56" />
    <vehicle id="veh_170" type="passenger" route="route_2" depart="322.62" />
    <vehicle id="veh_171" type="passenger" route="route_19" depart="324.13" />
    <vehicle id="veh_172" type="passenger" route="route_10" depart="324.86" />
    <vehicle id="veh_173" type="passenger" route="route_0" depart="325.34" />
    <vehicle id="veh_174" type="passenger" route="route_1" depart="327.82" />
    <vehicle id="veh_175" type="passenger" route="route_13" depart="330.73" />
    <vehicle id="veh_176" type="passenger" route="route_18" depart="331.92" />
    <vehicle id="veh_177" type="passenger" route="route_4" depart="333.89" />
    <vehicle id="veh_178" type="passenger" route="route_21" depart="335.21" />
    <vehicle id="veh_179" type="passenger" route="route_6" depart="335.88" />
    <vehicle id="veh_180" type="passenger" route="route_1" depart="336.74" />
    <vehicle id="veh_181" type="passenger" route="route_0" depart="337.74" />
    <vehicle id="veh_182" type="passenger" route="route_0" depart="338.17" />
    <vehicle id="veh_183" type="passenger" route="route_15" depart="341.54" />
    <vehicle id="veh_184" type="passenger" route="route_11" depart="343.16" />
    <vehicle id="veh_185" type="passenger" route="route_11" depart="345.27" />
    <vehicle id="veh_186" type="passenger" route="route_1" depart="345.41" />
    <vehicle id="veh_187" type="passenger" route="route_4" depart="345.61" />
    <vehicle id="veh_188" type="passenger" route="route_1" depart="346.07" />
    <vehicle id="veh_189" type="passenger" route="route_10" depart="346.74" />
    <vehicle id="veh_190" type="passenger" route="route_10" depart="346.75" />
    <vehicle id="veh_191" type="passenger" route="route_4" depart="347.68" />
    <vehicle id="veh_192" type="passenger" route="route_0" depart="351.23" />
    <vehicle id="veh_193" type="passenger" route="route_4" depart="351.42" />
    <vehicle id="veh_194" type="passenger" route="route_1" depart="351.45" />
    <vehicle id="veh_195" type="passenger" route="route_1" depart="361.19" />
    <vehicle id="veh_196" type="passenger" route="route_3" depart="362.25" />
    <vehicle id="veh_197" type="passenger" route="route_20" depart="363.24" />
    <vehicle id="veh_198" type="passenger" route="route_6" depart="363.78" />
    <vehicle id="veh_199" type="passenger" route="route_0" depart="366.48" />
    <vehicle id="veh_200" type="passenger" route="route_0" depart="367.32" />
    <vehicle id="veh_201" type="passenger" route="route_2" depart="370.21" />
    <vehicle id="veh_202" type="passenger" route="route_23" depart="370.33" />
    <vehicle id="veh_203" type="passenger" route="route_1" depart="371.06" />
    <vehicle id="veh_204" type="passenger" route="route_1" depart="381.99" />
    <vehicle id="veh_205" type="passenger" route="route_2" depart="383.35" />
    <vehicle id="veh_206" type="passenger" route="route_2" depart="383.76" />
    <vehicle id="veh_207" type="passenger" route="route_1" depart="383.91" />
    <vehicle id="veh_208" type="passenger" route="route_4" depart="388.93" />
    <vehicle id="veh_209" type="passenger" route="route_4" depart="389.85" />
    <vehicle id="veh_210" type="passenger" route="route_2" depart="392.31" />
    <vehicle id="veh_211" type="passenger" route="route_13" depart="395.74" />
    <vehicle id="veh_212" type="passenger" route="route_16" depart="395.75" />
    <vehicle id="veh_213" type="passenger" route="route_15" depart="396.84" />
    <vehicle id="veh_214" type="passenger" route="route_0" depart="401.97" />
    <vehicle id="veh_215" type="passenger" route="route_1" depart="402.77" />
    <vehicle id="veh_216" type="passenger" route="route_2" depart="406.82" />
    <vehicle id="veh_217" type="passenger" route="route_2" depart="408.02" />
    <vehicle id="veh_218" type="passenger" route="route_2" depart="408.23" />
    <vehicle id="veh_219" type="passenger" route="route_10" depart="410.64" />
    <vehicle id="veh_220" type="passenger" route="route_1" depart="412.76" />
    <vehicle id="veh_221" type="passenger" route="route_13" depart="414.62" />
    <vehicle id="veh_222" type="passenger" route="route_1" depart="415.25" />
    <vehicle id="veh_223" type="passenger" route="route_0" depart="415.87" />
    <vehicle id="veh_224" type="passenger" route="route_2" depart="416.80" />
    <vehicle id="veh_225" type="passenger" route="route_1" depart="418.63" />
    <vehicle id="veh_226" type="passenger" route="route_0" depart="420.66" />
    <vehicle id="veh_227" type="passenger" route="route_4" depart="421.03" />
    <vehicle id="veh_228" type="passenger" route="route_10" depart="421.41" />
    <vehicle id="veh_229" type="passenger" route="route_1" depart="421.70" />
    <vehicle id="veh_230" type="passenger" route="route_1" depart="422.91" />
    <vehicle id="veh_231" type="passenger" route="route_16" depart="424.42" />
    <vehicle id="veh_232" type="passenger" route="route_1" depart="424.68" />
    <vehicle id="veh_233" type="passenger" route="route_5" depart="424.87" />
    <vehicle id="veh_234" type="passenger" route="route_4" depart="425.56" />
    <vehicle id="veh_235" type="passenger" route="route_13" depart="426.87" />
    <vehicle id="veh_236" type="passenger" route="route_3" depart="426.97" />
    <vehicle id="veh_237" type="passenger" route="route_9" depart="428.82" />
    <vehicle id="veh_238" type="passenger" route="route_10" depart="433.82" />
    <vehicle id="veh_239" type="passenger" route="route_2" depart="440.09" />
    <vehicle id="veh_240" type="passenger" route="route_15" depart="441.05" />
    <vehicle id="veh_241" type="passenger" route="route_16" depart="441.76" />
    <vehicle id="veh_242" type="passenger" route="route_16" depart="441.89" />
    <vehicle id="veh_243" type="passenger" route="route_1" depart="444.24" />
    <vehicle id="veh_244" type="passenger" route="route_2" depart="446.41" />
    <vehicle id="veh_245" type="passenger" route="route_3" depart="447.88" />
    <vehicle id="veh_246" type="passenger" route="route_21" depart="448.08" />
    <vehicle id="veh_247" type="passenger" route="route_2" depart="450.70" />
    <vehicle id="veh_248" type="passenger" route="route_2" depart="451.58" />
    <vehicle id="veh_249" type="passenger" route="route_3" depart="453.47" />
    <vehicle id="veh_250" type="passenger" route="route_2" depart="456.94" />
    <vehicle id="veh_251" type="passenger" route="route_16" depart="457.31" />
    <vehicle id="veh_252" type="passenger" route="route_19" depart="458.80" />
    <vehicle id="veh_253" type="passenger" route="route_0" depart="458.94" />
    <vehicle id="veh_254" type="passenger" route="route_1" depart="459.39" />
    <vehicle id="veh_255" type="passenger" route="route_2" depart="459.65" />
    <vehicle id="veh_256" type="passenger" route="route_4" depart="460.57" />
    <vehicle id="veh_257" type="passenger" route="route_4" depart="463.62" />
    <vehicle id="veh_258" type="passenger" route="route_3" depart="465.31" />
    <vehicle id="veh_259" type="passenger" route="route_1" depart="465.34" />
    <vehicle id="veh_260" type="passenger" route="route_3" depart="468.44" />
    <vehicle id="veh_261" type="passenger" route="route_22" depart="468.92" />
    <vehicle id="veh_262" type="passenger" route="route_4" depart="469.24" />
    <vehicle id="veh_263" type="passenger" route="route_9" depart="470.92" />
    <vehicle id="veh_264" type="passenger" route="route_2" depart="472.21" />
    <vehicle id="veh_265" type="passenger" route="route_2" depart="476.83" />
    <vehicle id="veh_266" type="passenger" route="route_1" depart="478.00" />
    <vehicle id="veh_267" type="passenger" route="route_0" depart="478.04" />

    <!-- Segment 3: DIR_B_HEAVY (DIR_A=0.5x DIR_B=2.5x DIR_C=0.5x DIR_D=0.5x DIR_E=0.5x DIR_F=0.5x DIR_G=0.5x DIR_H=0.5x) | 480-720s -->
    <vehicle id="veh_268" type="passenger" route="route_19" depart="484.15" />
    <vehicle id="veh_269" type="passenger" route="route_2" depart="485.71" />
    <vehicle id="veh_270" type="passenger" route="route_1" depart="486.35" />
    <vehicle id="veh_271" type="passenger" route="route_1" depart="488.29" />
    <vehicle id="veh_272" type="passenger" route="route_8" depart="489.80" />
    <vehicle id="veh_273" type="passenger" route="route_10" depart="489.98" />
    <vehicle id="veh_274" type="passenger" route="route_11" depart="490.72" />
    <vehicle id="veh_275" type="passenger" route="route_21" depart="491.77" />
    <vehicle id="veh_276" type="passenger" route="route_15" depart="492.80" />
    <vehicle id="veh_277" type="passenger" route="route_15" depart="493.12" />
    <vehicle id="veh_278" type="passenger" route="route_3" depart="498.05" />
    <vehicle id="veh_279" type="passenger" route="route_0" depart="499.23" />
    <vehicle id="veh_280" type="passenger" route="route_10" depart="505.42" />
    <vehicle id="veh_281" type="passenger" route="route_2" depart="510.83" />
    <vehicle id="veh_282" type="passenger" route="route_5" depart="511.02" />
    <vehicle id="veh_283" type="passenger" route="route_11" depart="512.68" />
    <vehicle id="veh_284" type="passenger" route="route_5" depart="518.08" />
    <vehicle id="veh_285" type="passenger" route="route_20" depart="518.46" />
    <vehicle id="veh_286" type="passenger" route="route_5" depart="518.67" />
    <vehicle id="veh_287" type="passenger" route="route_1" depart="518.79" />
    <vehicle id="veh_288" type="passenger" route="route_5" depart="522.74" />
    <vehicle id="veh_289" type="passenger" route="route_2" depart="523.91" />
    <vehicle id="veh_290" type="passenger" route="route_5" depart="526.09" />
    <vehicle id="veh_291" type="passenger" route="route_10" depart="528.37" />
    <vehicle id="veh_292" type="passenger" route="route_5" depart="532.37" />
    <vehicle id="veh_293" type="passenger" route="route_2" depart="532.51" />
    <vehicle id="veh_294" type="passenger" route="route_1" depart="532.65" />
    <vehicle id="veh_295" type="passenger" route="route_7" depart="533.49" />
    <vehicle id="veh_296" type="passenger" route="route_15" depart="533.56" />
    <vehicle id="veh_297" type="passenger" route="route_1" depart="537.57" />
    <vehicle id="veh_298" type="passenger" route="route_20" depart="538.74" />
    <vehicle id="veh_299" type="passenger" route="route_2" depart="540.71" />
    <vehicle id="veh_300" type="passenger" route="route_3" depart="541.56" />
    <vehicle id="veh_301" type="passenger" route="route_3" depart="548.35" />
    <vehicle id="veh_302" type="passenger" route="route_11" depart="549.60" />
    <vehicle id="veh_303" type="passenger" route="route_2" depart="551.13" />
    <vehicle id="veh_304" type="passenger" route="route_5" depart="551.42" />
    <vehicle id="veh_305" type="passenger" route="route_16" depart="554.18" />
    <vehicle id="veh_306" type="passenger" route="route_19" depart="559.74" />
    <vehicle id="veh_307" type="passenger" route="route_18" depart="560.34" />
    <vehicle id="veh_308" type="passenger" route="route_11" depart="561.68" />
    <vehicle id="veh_309" type="passenger" route="route_21" depart="564.73" />
    <vehicle id="veh_310" type="passenger" route="route_15" depart="565.09" />
    <vehicle id="veh_311" type="passenger" route="route_16" depart="566.91" />
    <vehicle id="veh_312" type="passenger" route="route_11" depart="567.99" />
    <vehicle id="veh_313" type="passenger" route="route_20" depart="572.40" />
    <vehicle id="veh_314" type="passenger" route="route_5" depart="572.92" />
    <vehicle id="veh_315" type="passenger" route="route_0" depart="576.89" />
    <vehicle id="veh_316" type="passenger" route="route_2" depart="581.36" />
    <vehicle id="veh_317" type="passenger" route="route_0" depart="582.44" />
    <vehicle id="veh_318" type="passenger" route="route_20" depart="582.64" />
    <vehicle id="veh_319" type="passenger" route="route_13" depart="586.05" />
    <vehicle id="veh_320" type="passenger" route="route_5" depart="587.06" />
    <vehicle id="veh_321" type="passenger" route="route_21" depart="587.36" />
    <vehicle id="veh_322" type="passenger" route="route_18" depart="587.52" />
    <vehicle id="veh_323" type="passenger" route="route_11" depart="588.18" />
    <vehicle id="veh_324" type="passenger" route="route_22" depart="589.29" />
    <vehicle id="veh_325" type="passenger" route="route_5" depart="589.44" />
    <vehicle id="veh_326" type="passenger" route="route_5" depart="590.14" />
    <vehicle id="veh_327" type="passenger" route="route_3" depart="592.00" />
    <vehicle id="veh_328" type="passenger" route="route_14" depart="592.24" />
    <vehicle id="veh_329" type="passenger" route="route_16" depart="593.49" />
    <vehicle id="veh_330" type="passenger" route="route_19" depart="593.84" />
    <vehicle id="veh_331" type="passenger" route="route_5" depart="594.94" />
    <vehicle id="veh_332" type="passenger" route="route_8" depart="596.34" />
    <vehicle id="veh_333" type="passenger" route="route_3" depart="599.01" />
    <vehicle id="veh_334" type="passenger" route="route_7" depart="599.68" />
    <vehicle id="veh_335" type="passenger" route="route_0" depart="600.26" />
    <vehicle id="veh_336" type="passenger" route="route_20" depart="600.42" />
    <vehicle id="veh_337" type="passenger" route="route_19" depart="603.97" />
    <vehicle id="veh_338" type="passenger" route="route_22" depart="604.43" />
    <vehicle id="veh_339" type="passenger" route="route_5" depart="608.20" />
    <vehicle id="veh_340" type="passenger" route="route_5" depart="609.14" />
    <vehicle id="veh_341" type="passenger" route="route_5" depart="609.53" />
    <vehicle id="veh_342" type="passenger" route="route_10" depart="614.55" />
    <vehicle id="veh_343" type="passenger" route="route_5" depart="615.02" />
    <vehicle id="veh_344" type="passenger" route="route_21" depart="615.40" />
    <vehicle id="veh_345" type="passenger" route="route_5" depart="615.64" />
    <vehicle id="veh_346" type="passenger" route="route_19" depart="616.48" />
    <vehicle id="veh_347" type="passenger" route="route_2" depart="616.67" />
    <vehicle id="veh_348" type="passenger" route="route_23" depart="618.16" />
    <vehicle id="veh_349" type="passenger" route="route_23" depart="618.67" />
    <vehicle id="veh_350" type="passenger" route="route_22" depart="619.95" />
    <vehicle id="veh_351" type="passenger" route="route_15" depart="620.72" />
    <vehicle id="veh_352" type="passenger" route="route_9" depart="622.04" />
    <vehicle id="veh_353" type="passenger" route="route_5" depart="622.30" />
    <vehicle id="veh_354" type="passenger" route="route_4" depart="625.07" />
    <vehicle id="veh_355" type="passenger" route="route_5" depart="627.08" />
    <vehicle id="veh_356" type="passenger" route="route_5" depart="627.75" />
    <vehicle id="veh_357" type="passenger" route="route_15" depart="628.14" />
    <vehicle id="veh_358" type="passenger" route="route_10" depart="628.31" />
    <vehicle id="veh_359" type="passenger" route="route_22" depart="628.47" />
    <vehicle id="veh_360" type="passenger" route="route_5" depart="629.78" />