<edges>
    <edge id="t2c" from="top" to="center" numLanes="2" speed="13.89"/>
    <edge id="c2t" from="center" to="top" numLanes="2" speed="13.89"/>
    <edge id="b2c" from="bottom" to="center" numLanes="2" speed="13.89"/>
    <edge id="c2b" from="center" to="bottom" numLanes="2" speed="13.89"/>
    <edge id="l2c" from="left" to="center" numLanes="2" speed="13.89"/>
    <edge id="c2l" from="center" to="left" numLanes="2" speed="13.89"/>
    <edge id="r2c" from="right" to="center" numLanes="2" speed="13.89"/>
    <edge id="c2r" from="center" to="right" numLanes="2" speed="13.89"/>
</edges>