<configuration>
    <input>
        <net-file value="cross.net.xml"/>
        <route-files value="cross.rou.xml"/>
    </input>
    <time>
        <begin value="0"/>
        <end value="3600"/>
    </time>
    <gui_only>
        <start value="true"/>
        <quit-on-end value="false"/>
    </gui_only>
</configuration>