<?xml version="1.0" encoding="UTF-8"?>
<!-- Auto-generated Traffic Pattern Library -->
<!-- Total Duration: 7200s (2.0 hours) -->
<!-- Network: cross.net.xml -->
<routes>
    <vType id="passenger" accel="0.8" decel="4.5" length="5.0" minGap="2.5" maxSpeed="13.89" vClass="passenger" speedFactor="1.0" speedDev="0.1" jmIgnoreJunctionFoeProb="1.0" jmIgnoreKeepClearTime="-1" />

    <route id="route_0" edges="b2c c2r" />
    <route id="route_1" edges="b2c c2t" />
    <route id="route_2" edges="b2c c2t" />
    <route id="route_3" edges="b2c c2l" />
    <route id="route_4" edges="b2c c2b" />
    <route id="route_5" edges="c2b b2c" />
    <route id="route_6" edges="c2l l2c" />
    <route id="route_7" edges="c2r r2c" />
    <route id="route_8" edges="c2t t2c" />
    <route id="route_9" edges="l2c c2b" />
    <route id="route_10" edges="l2c c2r" />
    <route id="route_11" edges="l2c c2r" />
    <route id="route_12" edges="l2c c2t" />
    <route id="route_13" edges="l2c c2l" />
    <route id="route_14" edges="r2c c2t" />
    <route id="route_15" edges="r2c c2l" />
    <route id="route_16" edges="r2c c2l" />
    <route id="route_17" edges="r2c c2b" />
    <route id="route_18" edges="r2c c2r" />
    <route id="route_19" edges="t2c c2l" />
    <route id="route_20" edges="t2c c2b" />
    <route id="route_21" edges="t2c c2b" />
    <route id="route_22" edges="t2c c2r" />
    <route id="route_23" edges="t2c c2t" />


    <!-- Segment 1: BALANCED (DIR_A=1.0x DIR_B=1.0x DIR_C=1.0x DIR_D=1.0x DIR_E=1.0x DIR_F=1.0x DIR_G=1.0x DIR_H=1.0x) | 0-480s -->
    <vehicle id="veh_0" type="passenger" route="route_0" depart="1.84" />
    <vehicle id="veh_1" type="passenger" route="route_5" depart="2.42" />
    <vehicle id="veh_2" type="passenger" route="route_16" depart="4.82" />
    <vehicle id="veh_3" type="passenger" route="route_1" depart="8.82" />
    <vehicle id="veh_4" type="passenger" route="route_1" depart="9.81" />
    <vehicle id="veh_5" type="passenger" route="route_11" depart="10.26" />
    <vehicle id="veh_6" type="passenger" route="route_4" depart="10.30" />
    <vehicle id="veh_7" type="passenger" route="route_13" depart="12.19" />
    <vehicle id="veh_8" type="passenger" route="route_14" depart="12.64" />
    <vehicle id="veh_9" type="passenger" route="route_0" depart="15.62" />
    <vehicle id="veh_10" type="passenger" route="route_16" depart="18.58" />
    <vehicle id="veh_11" type="passenger" route="route_2" depart="19.32" />
    <vehicle id="veh_12" type="passenger" route="route_8" depart="25.00" />
    <vehicle id="veh_13" type="passenger" route="route_2" depart="25.17" />
    <vehicle id="veh_14" type="passenger" route="route_15" depart="28.56" />
    <vehicle id="veh_15" type="passenger" route="route_16" depart="31.52" />
    <vehicle id="veh_16" type="passenger" route="route_23" depart="32.90" />
    <vehicle id="veh_17" type="passenger" route="route_13" depart="33.76" />
    <vehicle id="veh_18" type="passenger" route="route_15" depart="36.94" />
    <vehicle id="veh_19" type="passenger" route="route_14" depart="40.50" />
    <vehicle id="veh_20" type="passenger" route="route_1" depart="42.70" />
    <vehicle id="veh_21" type="passenger" route="route_7" depart="43.16" />
    <vehicle id="veh_22" type="passenger" route="route_5" depart="43.31" />
    <vehicle id="veh_23" type="passenger" route="route_6" depart="43.50" />
    <vehicle id="veh_24" type="passenger" route="route_9" depart="45.32" />
    <vehicle id="veh_25" type="passenger" route="route_4" depart="46.15" />
    <vehicle id="veh_26" type="passenger" route="route_21" depart="46.71" />
    <vehicle id="veh_27" type="passenger" route="route_15" depart="48.59" />
    <vehicle id="veh_28" type="passenger" route="route_16" depart="48.93" />
    <vehicle id="veh_29" type="passenger" route="route_9" depart="49.25" />
    <vehicle id="veh_30" type="passenger" route="route_15" depart="57.46" />
    <vehicle id="veh_31" type="passenger" route="route_16" depart="58.92" />
    <vehicle id="veh_32" type="passenger" route="route_18" depart="62.25" />
    <vehicle id="veh_33" type="passenger" route="route_1" depart="62.72" />
    <vehicle id="veh_34" type="passenger" route="route_6" depart="63.40" />
    <vehicle id="veh_35" type="passenger" route="route_21" depart="63.83" />
    <vehicle id="veh_36" type="passenger" route="route_7" depart="67.59" />
    <vehicle id="veh_37" type="passenger" route="route_10" depart="69.51" />
    <vehicle id="veh_38" type="passenger" route="route_11" depart="73.94" />
    <vehicle id="veh_39" type="passenger" route="route_5" depart="74.49" />
    <vehicle id="veh_40" type="passenger" route="route_6" depart="75.98" />
    <vehicle id="veh_41" type="passenger" route="route_21" depart="77.56" />
    <vehicle id="veh_42" type="passenger" route="route_5" depart="78.47" />
    <vehicle id="veh_43" type="passenger" route="route_11" depart="89.29" />
    <vehicle id="veh_44" type="passenger" route="route_1" depart="89.46" />
    <vehicle id="veh_45" type="passenger" route="route_15" depart="89.67" />
    <vehicle id="veh_46" type="passenger" route="route_10" depart="92.49" />
    <vehicle id="veh_47" type="passenger" route="route_9" depart="92.61" />
    <vehicle id="veh_48" type="passenger" route="route_12" depart="102.61" />
    <vehicle id="veh_49" type="passenger" route="route_20" depart="108.98" />
    <vehicle id="veh_50" type="passenger" route="route_16" depart="109.01" />
    <vehicle id="veh_51" type="passenger" route="route_13" depart="111.07" />
    <vehicle id="veh_52" type="passenger" route="route_15" depart="111.62" />
    <vehicle id="veh_53" type="passenger" route="route_10" depart="111.84" />
    <vehicle id="veh_54" type="passenger" route="route_22" depart="112.93" />
    <vehicle id="veh_55" type="passenger" route="route_6" depart="116.68" />
    <vehicle id="veh_56" type="passenger" route="route_4" depart="117.93" />
    <vehicle id="veh_57" type="passenger" route="route_20" depart="122.32" />
    <vehicle id="veh_58" type="passenger" route="route_15" depart="122.96" />
    <vehicle id="veh_59" type="passenger" route="route_2" depart="124.65" />
    <vehicle id="veh_60" type="passenger" route="route_13" depart="127.23" />
    <vehicle id="veh_61" type="passenger" route="route_12" depart="129.95" />
    <vehicle id="veh_62" type="passenger" route="route_8" depart="129.95" />
    <vehicle id="veh_63" type="passenger" route="route_21" depart="129.98" />
    <vehicle id="veh_64" type="passenger" route="route_20" depart="133.78" />
    <vehicle id="veh_65" type="passenger" route="route_1" depart="134.44" />
    <vehicle id="veh_66" type="passenger" route="route_22" depart="138.23" />
    <vehicle id="veh_67" type="passenger" route="route_11" depart="138.39" />
    <vehicle id="veh_68" type="passenger" route="route_18" depart="138.52" />
    <vehicle id="veh_69" type="passenger" route="route_2" depart="141.13" />
    <vehicle id="veh_70" type="passenger" route="route_13" depart="142.29" />
    <vehicle id="veh_71" type="passenger" route="route_20" depart="142.85" />
    <vehicle id="veh_72" type="passenger" route="route_4" depart="143.84" />
    <vehicle id="veh_73" type="passenger" route="route_16" depart="145.23" />
    <vehicle id="veh_74" type="passenger" route="route_7" depart="145.64" />
    <vehicle id="veh_75" type="passenger" route="route_15" depart="155.23" />
    <vehicle id="veh_76" type="passenger" route="route_11" depart="156.27" />
    <vehicle id="veh_77" type="passenger" route="route_5" depart="156.50" />
    <vehicle id="veh_78" type="passenger" route="route_14" depart="157.24" />
    <vehicle id="veh_79" type="passenger" route="route_5" depart="157.71" />
    <vehicle id="veh_80" type="passenger" route="route_15" depart="157.85" />
    <vehicle id="veh_81" type="passenger" route="route_21" depart="158.31" />
    <vehicle id="veh_82" type="passenger" route="route_1" depart="161.85" />
    <vehicle id="veh_83" type="passenger" route="route_16" depart="162.34" />
    <vehicle id="veh_84" type="passenger" route="route_2" depart="162.77" />
    <vehicle id="veh_85" type="passenger" route="route_13" depart="167.71" />
    <vehicle id="veh_86" type="passenger" route="route_18" depart="168.86" />
    <vehicle id="veh_87" type="passenger" route="route_4" depart="171.82" />
    <vehicle id="veh_88" type="passenger" route="route_10" depart="172.01" />
    <vehicle id="veh_89" type="passenger" route="route_11" depart="173.00" />
    <vehicle id="veh_90" type="passenger" route="route_16" depart="175.35" />
    <vehicle id="veh_91" type="passenger" route="route_2" depart="182.81" />
    <vehicle id="veh_92" type="passenger" route="route_8" depart="183.74" />
    <vehicle id="veh_93" type="passenger" route="route_5" depart="187.30" />
    <vehicle id="veh_94" type="passenger" route="route_10" depart="187.68" />
    <vehicle id="veh_95" type="passenger" route="route_6" depart="188.67" />
    <vehicle id="veh_96" type="passenger" route="route_21" depart="189.18" />
    <vehicle id="veh_97" type="passenger" route="route_20" depart="190.24" />
    <vehicle id="veh_98" type="passenger" route="route_1" depart="191.68" />
    <vehicle id="veh_99" type="passenger" route="route_20" depart="204.71" />
    <vehicle id="veh_100" type="passenger" route="route_21" depart="210.96" />
    <vehicle id="veh_101" type="passenger" route="route_3" depart="214.36" />
    <vehicle id="veh_102" type="passenger" route="route_5" depart="215.56" />
    <vehicle id="veh_103" type="passenger" route="route_1" depart="216.48" />
    <vehicle id="veh_104" type="passenger" route="route_23" depart="217.34" />
    <vehicle id="veh_105" type="passenger" route="route_18" depart="217.89" />
    <vehicle id="veh_106" type="passenger" route="route_10" depart="218.98" />
    <vehicle id="veh_107" type="passenger" route="route_23" depart="224.66" />
    <vehicle id="veh_108" type="passenger" route="route_16" depart="226.12" />
    <vehicle id="veh_109" type="passenger" route="route_7" depart="226.42" />
    <vehicle id="veh_110" type="passenger" route="route_14" depart="232.66" />
    <vehicle id="veh_111" type="passenger" route="route_17" depart="234.07" />
    <vehicle id="veh_112" type="passenger" route="route_14" depart="234.17" />
    <vehicle id="veh_113" type="passenger" route="route_20" depart="235.43" />
    <vehicle id="veh_114" type="passenger" route="route_22" depart="235.74" />
    <vehicle id="veh_115" type="passenger" route="route_4" depart="235.89" />
    <vehicle id="veh_116" type="passenger" route="route_16" depart="237.51" />
    <vehicle id="veh_117" type="passenger" route="route_2" depart="238.00" />
    <vehicle id="veh_118" type="passenger" route="route_5" depart="241.98" />
    <vehicle id="veh_119" type="passenger" route="route_15" depart="243.60" />
    <vehicle id="veh_120" type="passenger" route="route_14" depart="244.58" />
    <vehicle id="veh_121" type="passenger" route="route_21" depart="245.91" />
    <vehicle id="veh_122" type="passenger" route="route_16" depart="246.32" />
    <vehicle id="veh_123" type="passenger" route="route_10" depart="246.81" />
    <vehicle id="veh_124" type="passenger" route="route_7" depart="248.82" />
    <vehicle id="veh_125" type="passenger" route="route_18" depart="249.50" />
    <vehicle id="veh_126" type="passenger" route="route_11" depart="249.64" />
    <vehicle id="veh_127" type="passenger" route="route_23" depart="261.29" />
    <vehicle id="veh_128" type="passenger" route="route_4" depart="261.42" />
    <vehicle id="veh_129" type="passenger" route="route_21" depart="261.98" />
    <vehicle id="veh_130" type="passenger" route="route_20" depart="265.81" />
    <vehicle id="veh_131" type="passenger" route="route_2" depart="266.64" />
    <vehicle id="veh_132" type="passenger" route="route_16" depart="269.87" />
    <vehicle id="veh_133" type="passenger" route="route_23" depart="271.57" />
    <vehicle id="veh_134" type="passenger" route="route_0" depart="273.48" />
    <vehicle id="veh_135" type="passenger" route="route_7" depart="276.54" />
    <vehicle id="veh_136" type="passenger" route="route_21" depart="278.50" />
    <vehicle id="veh_137" type="passenger" route="route_2" depart="278.76" />
    <vehicle id="veh_138" type="passenger" route="route_13" depart="278.96" />
    <vehicle id="veh_139" type="passenger" route="route_15" depart="279.53" />
    <vehicle id="veh_140" type="passenger" route="route_4" depart="281.81" />
    <vehicle id="veh_141" type="passenger" route="route_6" depart="283.62" />
    <vehicle id="veh_142" type="passenger" route="route_21" depart="284.83" />
    <vehicle id="veh_143" type="passenger" route="route_1" depart="288.20" />
    <vehicle id="veh_144" type="passenger" route="route_6" depart="289.19" />
    <vehicle id="veh_145" type="passenger" route="route_18" depart="289.19" />
    <vehicle id="veh_146" type="passenger" route="route_6" depart="291.02" />
    <vehicle id="veh_147" type="passenger" route="route_13" depart="293.45" />
    <vehicle id="veh_148" type="passenger" route="route_0" depart="294.46" />
    <vehicle id="veh_149" type="passenger" route="route_21" depart="294.60" />
    <vehicle id="veh_150" type="passenger" route="route_13" depart="298.81" />
    <vehicle id="veh_151" type="passenger" route="route_14" depart="302.05" />
    <vehicle id="veh_152" type="passenger" route="route_2" depart="302.34" />
    <vehicle id="veh_153" type="passenger" route="route_21" depart="303.00" />
    <vehicle id="veh_154" type="passenger" route="route_20" depart="305.87" />
    <vehicle id="veh_155" type="passenger" route="route_4" depart="309.99" />
    <vehicle id="veh_156" type="passenger" route="route_2" depart="310.51" />
    <vehicle id="veh_157" type="passenger" route="route_21" depart="313.24" />
    <vehicle id="veh_158" type="passenger" route="route_15" depart="314.17" />
    <vehicle id="veh_159" type="passenger" route="route_21" depart="314.48" />
    <vehicle id="veh_160" type="passenger" route="route_23" depart="318.08" />
    <vehicle id="veh_161" type="passenger" route="route_21" depart="321.07" />
    <vehicle id="veh_162" type="passenger" route="route_17" depart="321.12" />
    <vehicle id="veh_163" type="passenger" route="route_21" depart="321.84" />
    <vehicle id="veh_164" type="passenger" route="route_20" depart="324.76" />
    <vehicle id="veh_165" type="passenger" route="route_6" depart="327.76" />
    <vehicle id="veh_166" type="passenger" route="route_2" depart="330.55" />
    <vehicle id="veh_167" type="passenger" route="route_20" depart="334.25" />
    <vehicle id="veh_168" type="passenger" route="route_20" depart="334.70" />
    <vehicle id="veh_169" type="passenger" route="route_7" depart="335.81" />
    <vehicle id="veh_170" type="passenger" route="route_5" depart="338.67" />
    <vehicle id="veh_171" type="passenger" route="route_4" depart="338.71" />
    <vehicle id="veh_172" type="passenger" route="route_20" depart="339.43" />
    <vehicle id="veh_173" type="passenger" route="route_6" depart="345.56" />
    <vehicle id="veh_174" type="passenger" route="route_10" depart="347.41" />
    <vehicle id="veh_175" type="passenger" route="route_12" depart="354.55" />
    <vehicle id="veh_176" type="passenger" route="route_2" depart="359.60" />
    <vehicle id="veh_177" type="passenger" route="route_4" depart="365.93" />
    <vehicle id="veh_178" type="passenger" route="route_6" depart="371.84" />
    <vehicle id="veh_179" type="passenger" route="route_10" depart="372.05" />
    <vehicle id="veh_180" type="passenger" route="route_7" depart="374.40" />
    <vehicle id="veh_181" type="passenger" route="route_11" depart="376.07" />
    <vehicle id="veh_182" type="passenger" route="route_14" depart="376.95" />
    <vehicle id="veh_183" type="passenger" route="route_16" depart="377.48" />
    <vehicle id="veh_184" type="passenger" route="route_21" depart="377.48" />
    <vehicle id="veh_185" type="passenger" route="route_16" depart="378.87" />
    <vehicle id="veh_186" type="passenger" route="route_16" depart="381.31" />
    <vehicle id="veh_187" type="passenger" route="route_1" depart="382.13" />
    <vehicle id="veh_188" type="passenger" route="route_8" depart="384.09" />
    <vehicle id="veh_189" type="passenger" route="route_20" depart="384.77" />
    <vehicle id="veh_190" type="passenger" route="route_7" depart="387.06" />
    <vehicle id="veh_191" type="passenger" route="route_10" depart="387.73" />
    <vehicle id="veh_192" type="passenger" route="route_7" depart="388.65" />
    <vehicle id="veh_193" type="passenger" route="route_10" depart="388.90" />
    <vehicle id="veh_194" type="passenger" route="route_16" depart="393.97" />
    <vehicle id="veh_195" type="passenger" route="route_15" depart="398.17" />
    <vehicle id="veh_196" type="passenger" route="route_13" depart="398.81" />
    <vehicle id="veh_197" type="passenger" route="route_7" depart="398.81" />
    <vehicle id="veh_198" type="passenger" route="route_14" depart="399.83" />
    <vehicle id="veh_199" type="passenger" route="route_11" depart="401.74" />
    <vehicle id="veh_200" type="passenger" route="route_5" depart="402.79" />
    <vehicle id="veh_201" type="passenger" route="route_21" depart="403.94" />
    <vehicle id="veh_202" type="passenger" route="route_3" depart="406.81" />
    <vehicle id="veh_203" type="passenger" route="route_11" depart="406.96" />
    <vehicle id="veh_204" type="passenger" route="route_8" depart="408.77" />
    <vehicle id="veh_205" type="passenger" route="route_18" depart="411.84" />
    <vehicle id="veh_206" type="passenger" route="route_5" depart="413.85" />
    <vehicle id="veh_207" type="passenger" route="route_0" depart="414.25" />
    <vehicle id="veh_208" type="passenger" route="route_11" depart="414.76" />
    <vehicle id="veh_209" type="passenger" route="route_1" depart="418.17" />
    <vehicle id="veh_210" type="passenger" route="route_15" depart="419.13" />
    <vehicle id="veh_211" type="passenger" route="route_16" depart="419.52" />
    <vehicle id="veh_212" type="passenger" route="route_5" depart="420.75" />
    <vehicle id="veh_213" type="passenger" route="route_0" depart="422.67" />
    <vehicle id="veh_214" type="passenger" route="route_18" depart="425.17" />
    <vehicle id="veh_215" type="passenger" route="route_10" depart="425.37" />
    <vehicle id="veh_216" type="passenger" route="route_22" depart="425.72" />
    <vehicle id="veh_217" type="passenger" route="route_1" depart="427.04" />
    <vehicle id="veh_218" type="passenger" route="route_20" depart="427.55" />
    <vehicle id="veh_219" type="passenger" route="route_19" depart="428.65" />
    <vehicle id="veh_220" type="passenger" route="route_23" depart="430.63" />
    <vehicle id="veh_221" type="passenger" route="route_22" depart="432.26" />
    <vehicle id="veh_222" type="passenger" route="route_15" depart="436.26" />
    <vehicle id="veh_223" type="passenger" route="route_11" depart="438.54" />
    <vehicle id="veh_224" type="passenger" route="route_13" depart="441.74" />
    <vehicle id="veh_225" type="passenger" route="route_17" depart="445.83" />
    <vehicle id="veh_226" type="passenger" route="route_6" depart="446.99" />
    <vehicle id="veh_227" type="passenger" route="route_15" depart="447.50" />
    <vehicle id="veh_228" type="passenger" route="route_12" depart="450.12" />
    <vehicle id="veh_229" type="passenger" route="route_6" depart="451.89" />
    <vehicle id="veh_230" type="passenger" route="route_6" depart="452.04" />
    <vehicle id="veh_231" type="passenger" route="route_7" depart="452.61" />
    <vehicle id="veh_232" type="passenger" route="route_2" depart="454.01" />
    <vehicle id="veh_233" type="passenger" route="route_16" depart="454.48" />
    <vehicle id="veh_234" type="passenger" route="route_1" depart="456.68" />
    <vehicle id="veh_235" type="passenger" route="route_13" depart="457.63" />
    <vehicle id="veh_236" type="passenger" route="route_4" depart="458.59" />
    <vehicle id="veh_237" type="passenger" route="route_21" depart="459.58" />
    <vehicle id="veh_238" type="passenger" route="route_16" depart="461.15" />
    <vehicle id="veh_239" type="passenger" route="route_18" depart="464.65" />
    <vehicle id="veh_240" type="passenger" route="route_0" depart="465.51" />
    <vehicle id="veh_241" type="passenger" route="route_18" depart="466.29" />
    <vehicle id="veh_242" type="passenger" route="route_22" depart="469.75" />
    <vehicle id="veh_243" type="passenger" route="route_17" depart="470.73" />
    <vehicle id="veh_244" type="passenger" route="route_15" depart="472.15" />
    <vehicle id="veh_245" type="passenger" route="route_5" depart="472.60" />
    <vehicle id="veh_246" type="passenger" route="route_1" depart="473.63" />
    <vehicle id="veh_247" type="passenger" route="route_16" depart="474.37" />
    <vehicle id="veh_248" type="passenger" route="route_3" depart="475.30" />
    <vehicle id="veh_249" type="passenger" route="route_2" depart="476.43" />
    <vehicle id="veh_250" type="passenger" route="route_0" depart="478.19" />
    <vehicle id="veh_251" type="passenger" route="route_13" depart="479.09" />
    <vehicle id="veh_252" type="passenger" route="route_15" depart="479.14" />
    <vehicle id="veh_253" type="passenger" route="route_11" depart="479.40" />
    <vehicle id="veh_254" type="passenger" route="route_9" depart="479.49" />
    <vehicle id="veh_255" type="passenger" route="route_8" depart="479.92" />

    <!-- Segment 2: DIR_A_HEAVY (DIR_A=2.5x DIR_B=0.5x DIR_C=0.5x DIR_D=0.5x DIR_E=0.5x DIR_F=0.5x DIR_G=0.5x DIR_H=0.5x) | 480-960s -->
    <vehicle id="veh_256" type="passenger" route="route_13" depart="480.86" />
    <vehicle id="veh_257" type="passenger" route="route_1" depart="484.07" />
    <vehicle id="veh_258" type="passenger" route="route_0" depart="484.22" />
    <vehicle id="veh_259" type="passenger" route="route_23" depart="485.62" />
    <vehicle id="veh_260" type="passenger" route="route_8" depart="486.39" />
    <vehicle id="veh_261" type="passenger" route="route_8" depart="489.13" />
    <vehicle id="veh_262" type="passenger" route="route_21" depart="491.65" />
    <vehicle id="veh_263" type="passenger" route="route_0" depart="492.05" />
    <vehicle id="veh_264" type="passenger" route="route_1" depart="492.35" />
    <vehicle id="veh_265" type="passenger" route="route_4" depart="494.34" />
    <vehicle id="veh_266" type="passenger" route="route_10" depart="494.79" />
    <vehicle id="veh_267" type="passenger" route="route_1" depart="497.41" />
    <vehicle id="veh_268" type="passenger" route="route_12" depart="499.09" />
    <vehicle id="veh_269" type="passenger" route="route_15" depart="499.31" />
    <vehicle id="veh_270" type="passenger" route="route_1" depart="505.33" />
    <vehicle id="veh_271" type="passenger" route="route_2" depart="505.38" />
    <vehicle id="veh_272" type="passenger" route="route_21" depart="507.41" />
    <vehicle id="veh_273" type="passenger" route="route_11" depart="508.32" />
    <vehicle id="veh_274" type="passenger" route="route_10" depart="508.46" />
    <vehicle id="veh_275" type="passenger" route="route_1" depart="510.24" />
    <vehicle id="veh_276" type="passenger" route="route_16" depart="512.91" />
    <vehicle id="veh_277" type="passenger" route="route_1" depart="514.56" />
    <vehicle id="veh_278" type="passenger" route="route_14" depart="521.98" />
    <vehicle id="veh_279" type="passenger" route="route_2" depart="522.75" />
    <vehicle id="veh_280" type="passenger" route="route_4" depart="523.58" />
    <vehicle id="veh_281" type="passenger" route="route_16" depart="524.33" />
    <vehicle id="veh_282" type="passenger" route="route_1" depart="527.45" />
    <vehicle id="veh_283" type="passenger" route="route_8" depart="533.27" />
    <vehicle id="veh_284" type="passenger" route="route_11" depart="536.45" />
    <vehicle id="veh_285" type="passenger" route="route_11" depart="537.48" />
    <vehicle id="veh_286" type="passenger" route="route_2" depart="543.54" />
    <vehicle id="veh_287" type="passenger" route="route_4" depart="546.51" />
    <vehicle id="veh_288" type="passenger" route="route_3" depart="547.70" />
    <vehicle id="veh_289" type="passenger" route="route_2" depart="550.06" />
    <vehicle id="veh_290" type="passenger" route="route_16" depart="553.50" />
    <vehicle id="veh_291" type="passenger" route="route_18" depart="553.66" />
    <vehicle id="veh_292" type="passenger" route="route_3" depart="554.17" />
    <vehicle id="veh_293" type="passenger" route="route_2" depart="555.86" />
    <vehicle id="veh_294" type="passenger" route="route_16" depart="555.91" />
    <vehicle id="veh_295" type="passenger" route="route_1" depart="556.28" />
    <vehicle id="veh_296" type="passenger" route="route_2" depart="559.15" />
    <vehicle id="veh_297" type="passenger" route="route_10" depart="562.97" />
    <vehicle id="veh_298" type="passenger" route="route_0" depart="563.56" />
    <vehicle id="veh_299" type="passenger" route="route_1" depart="568.88" />
    <vehicle id="veh_300" type="passenger" route="route_4" depart="571.17" />
    <vehicle id="veh_301" type="passenger" route="route_10" depart="573.73" />
    <vehicle id="veh_302" type="passenger" route="route_4" depart="575.60" />
    <vehicle id="veh_303" type="passenger" route="route_1" depart="578.43" />
    <vehicle id="veh_304" type="passenger" route="route_10" depart="578.88" />
    <vehicle id="veh_305" type="passenger" route="route_5" depart="579.54" />
    <vehicle id="veh_306" type="passenger" route="route_4" depart="580.69" />
    <vehicle id="veh_307" type="passenger" route="route_12" depart="581.69" />
    <vehicle id="veh_308" type="passenger" route="route_10" depart="582.41" />
    <vehicle id="veh_309" type="passenger" route="route_1" depart="582.98" />
    <vehicle id="veh_310" type="passenger" route="route_1" depart="583.21" />
    <vehicle id="veh_311" type="passenger" route="route_4" depart="583.44" />
    <vehicle id="veh_312" type="passenger" route="route_1" depart="586.03" />
    <vehicle id="veh_313" type="passenger" route="route_4" depart="586.47" />
    <vehicle id="veh_314" type="passenger" route="route_22" depart="588.79" />
    <vehicle id="veh_315" type="passenger" route="route_2" depart="590.13" />
    <vehicle id="veh_316" type="passenger" route="route_1" depart="590.32" />
    <vehicle id="veh_317" type="passenger" route="route_1" depart="590.78" />
    <vehicle id="veh_318" type="passenger" route="route_4" depart="590.81" />
    <vehicle id="veh_319" type="passenger" route="route_22" depart="591.39" />
    <vehicle id="veh_320" type="passenger" route="route_10" depart="592.84" />
    <vehicle id="veh_321" type="passenger" route="route_18" depart="593.08" />
    <vehicle id="veh_322" type="passenger" route="route_18" depart="594.29" />
    <vehicle id="veh_323" type="passenger" route="route_3" depart="595.83" />
    <vehicle id="veh_324" type="passenger" route="route_1" depart="596.88" />
    <vehicle id="veh_325" type="passenger" route="route_21" depart="596.97" />
    <vehicle id="veh_326" type="passenger" route="route_16" depart="598.14" />
    <vehicle id="veh_327" type="passenger" route="route_0" depart="599.06" />
    <vehicle id="veh_328" type="passenger" route="route_0" depart="600.85" />
    <vehicle id="veh_329" type="passenger" route="route_4" depart="601.14" />
    <vehicle id="veh_330" type="passenger" route="route_23" depart="601.79" />
    <vehicle id="veh_331" type="passenger" route="route_13" depart="602.02" />
    <vehicle id="veh_332" type="passenger" route="route_15" depart="603.70" />
    <vehicle id="veh_333" type="passenger" route="route_4" depart="604.16" />
    <vehicle id="veh_334" type="passenger" route="route_3" depart="605.23" />
    <vehicle id="veh_335" type="passenger" route="route_23" depart="608.78" />
    <vehicle id="veh_336" type="passenger" route="route_7" depart="609.43" />
    <vehicle id="veh_337" type="passenger" route="route_11" depart="611.12" />
    <vehicle id="veh_338" type="passenger" route="route_1" depart="616.43" />
    <vehicle id="veh_339" type="passenger" route="route_9" depart="616.86" />
    <vehicle id="veh_340" type="passenger" route="route_1" depart="617.17" />
    <vehicle id="veh_341" type="passenger" route="route_0" depart="617.31" />
    <vehicle id="veh_342" type="passenger" route="route_5" depart="618.38" />
    <vehicle id="veh_343" type="passenger" route="route_1" depart="619.00" />
    <vehicle id="veh_344" type="passenger" route="route_10" depart="621.21" />
    <vehicle id="veh_345" type="passenger" route="route_10" depart="622.30" />
    <vehicle id="veh_346" type="passenger" route="route_15" depart="626.94" />
    <vehicle id="veh_347" type="passenger" route="route_9" depart="628.71" />
    <vehicle id="veh_348" type="passenger" route="route_2" depart="633.59" />
    <vehicle id="veh_349" type="passenger" route="route_8" depart="635.00" />
    <vehicle id="veh_350" type="passenger" route="route_16" depart="639.31" />
    <vehicle id="veh_351" type="passenger" route="route_1" depart="639.44" />
    <vehicle id="veh_352" type="passenger" route="route_12" depart="640.10" />
    <vehicle id="veh_353" type="passenger" route="route_2" depart="641.62" />
    <vehicle id="veh_354" type="passenger" route="route_10" depart="641.86" />
    <vehicle id="veh_355" type="passenger" route="route_21" depart="644.02" />
    <vehicle id="veh_356" type="passenger" route="route_4" depart="645.27" />
    <vehicle id="veh_357" type="passenger" route="route_0" depart="645.42" />
    <vehicle id="veh_358" type="passenger" route="route_2" depart="646.44" />
    <vehicle id="veh_359" type="passenger" route="route_1" depart="646.96" />
    <vehicle id="veh_360" type="passenger" route="route_16" depart="652.84" />
    <vehicle id="veh_361" type="passenger" route="route_21" depart="654.38" />