<?xml version="1.0" encoding="UTF-8"?>

<!-- generated on 2026-02-11T22:49:52.950536+01:00 by Eclipse SUMO netconvert 1.25.0
<netconvertConfiguration xmlns:xsi="http://www.w3.org/2001/XMLSchema-instance" xsi:noNamespaceSchemaLocation="http://sumo.dlr.de/xsd/netconvertConfiguration.xsd">

    <input>
        <sumo-net-file value="berlin-small.net.xml"/>
    </input>

    <output>
        <output-file value="J/J.net.xml"/>
    </output>

    <processing>
        <geometry.min-radius.fix.railways value="false"/>
        <geometry.avoid-overlap value="false"/>
        <geometry.max-grade.fix value="false"/>
        <offset.disable-normalization value="true"/>
        <lefthand value="0"/>
    </processing>

    <edge_removal>
        <keep-edges.in-boundary value="22157.60,15484.18,22362.85,15371.51"/>
    </edge_removal>

    <junctions>
        <no-turnarounds value="true"/>
        <junctions.corner-detail value="5"/>
        <junctions.limit-turn-speed value="5.50"/>
        <rectangular-lane-cut value="0"/>
    </junctions>

    <pedestrian>
        <walkingareas value="0"/>
    </pedestrian>

</netconvertConfiguration>
-->

<net version="1.20" junctionCornerDetail="5" limitTurnSpeed="5.50" avoidOverlap="0" xmlns:xsi="http://www.w3.org/2001/XMLSchema-instance" xsi:noNamespaceSchemaLocation="http://sumo.dlr.de/xsd/net_file.xsd">

    <location netOffset="-372355.98,-5804722.35" convBoundary="22156.10,15229.27,22416.18,15700.80" origBoundary="13.122591,52.383149,13.502221,52.618113" projParameter="+proj=utm +zone=33 +ellps=WGS84 +datum=WGS84 +units=m +no_defs"/>

    <type id="highway.residential" priority="3" numLanes="1" speed="13.89" disallow="tram rail_urban rail rail_electric rail_fast ship container cable_car subway aircraft wheelchair scooter drone" oneway="0"/>

    <edge id=":29271713_0" function="internal">
        <lane id=":29271713_0_0" index="0" disallow="tram rail_urban rail rail_electric rail_fast ship cable_car subway" speed="6.50" length="9.03" shape="22347.08,15479.98 22344.67,15479.43 22342.66,15479.78 22341.05,15481.04 22339.85,15483.20"/>
    </edge>
    <edge id=":29271713_1" function="internal">
        <lane id=":29271713_1_0" index="0" disallow="tram rail_urban rail rail_electric rail_fast ship cable_car subway" speed="8.33" length="14.40" shape="22347.08,15479.98 22333.64,15474.81"/>
    </edge>
    <edge id=":29271713_2" function="internal">
        <lane id=":29271713_2_0" index="0" disallow="tram rail_urban rail rail_electric rail_fast ship cable_car subway" speed="8.33" length="14.40" shape="22334.79,15471.82 22348.23,15477.00"/>
    </edge>
    <edge id=":29271713_3" function="internal">
        <lane id=":29271713_3_0" index="0" disallow="tram rail_urban rail rail_electric rail_fast ship cable_car subway" speed="8.01" length="14.20" shape="22334.79,15471.82 22338.18,15473.72 22340.16,15476.25 22340.71,15479.41 22339.85,15483.20"/>
    </edge>
    <edge id=":29271713_4" function="internal">
        <lane id=":29271713_4_0" index="0" disallow="tram rail_urban rail rail_electric rail_fast ship cable_car subway" speed="6.52" length="9.04" shape="22336.86,15482.06 22337.41,15479.64 22337.06,15477.63 22335.80,15476.02 22333.64,15474.81"/>
    </edge>
    <edge id=":29271713_5" function="internal">
        <lane id=":29271713_5_0" index="0" disallow="tram rail_urban rail rail_electric rail_fast ship cable_car subway" speed="8.00" length="14.20" shape="22336.86,15482.06 22338.75,15478.66 22341.28,15476.68 22344.44,15476.13 22348.23,15477.00"/>
    </edge>
    <edge id=":cluster_29271680_494154248_5960119458_5960119459_5960119460_5960119461_5960119462_5960119463_5960119464_0" function="internal">
        <lane id=":cluster_29271680_494154248_5960119458_5960119459_5960119460_5960119461_5960119462_5960119463_5960119464_0_0" index="0" disallow="tram rail_urban rail rail_electric rail_fast ship cable_car subway" speed="8.33" length="21.88" shape="22262.24,15447.31 22255.87,15445.67 22250.68,15446.09 22246.65,15448.57 22243.80,15453.11"/>
    </edge>
    <edge id=":cluster_29271680_494154248_5960119458_5960119459_5960119460_5960119461_5960119462_5960119463_5960119464_1" function="internal">
        <lane id=":cluster_29271680_494154248_5960119458_5960119459_5960119460_5960119461_5960119462_5960119463_5960119464_1_0" index="0" disallow="tram rail_urban rail rail_electric rail_fast ship cable_car subway" speed="8.33" length="30.84" shape="22262.24,15447.31 22256.63,15444.54 22248.64,15439.87 22240.99,15434.78 22236.39,15430.71"/>
    </edge>
    <edge id=":cluster_29271680_494154248_5960119458_5960119459_5960119460_5960119461_5960119462_5960119463_5960119464_2" function="internal">
        <lane id=":cluster_29271680_494154248_5960119458_5960119459_5960119460_5960119461_5960119462_5960119463_5960119464_2_0" index="0" disallow="tram rail_urban rail rail_electric rail_fast ship cable_car subway" speed="8.33" length="8.52" shape="22262.24,15447.31 22255.29,15443.39 22254.97,15442.96"/>
    </edge>
    <edge id=":cluster_29271680_494154248_5960119458_5960119459_5960119460_5960119461_5960119462_5960119463_5960119464_12" function="internal">
        <lane id=":cluster_29271680_494154248_5960119458_5960119459_5960119460_5960119461_5960119462_5960119463_5960119464_12_0" index="0" disallow="tram rail_urban rail rail_electric rail_fast ship cable_car subway" speed="8.33" length="20.86" shape="22254.97,15442.96 22251.37,15438.14 22250.47,15431.55 22252.59,15423.63"/>
    </edge>
    <edge id=":cluster_29271680_494154248_5960119458_5960119459_5960119460_5960119461_5960119462_5960119463_5960119464_3" function="internal">
        <lane id=":cluster_29271680_494154248_5960119458_5960119459_5960119460_5960119461_5960119462_5960119463_5960119464_3_0" index="0" disallow="tram rail_urban rail rail_electric rail_fast ship cable_car subway" speed="8.33" length="24.10" shape="22255.53,15424.87 22253.78,15431.39 22254.51,15436.80 22257.71,15441.11 22263.38,15444.33"/>
    </edge>
    <edge id=":cluster_29271680_494154248_5960119458_5960119459_5960119460_5960119461_5960119462_5960119463_5960119464_4" function="internal">
        <lane id=":cluster_29271680_494154248_5960119458_5960119459_5960119460_5960119461_5960119462_5960119463_5960119464_4_0" index="0" disallow="tram rail_urban rail rail_electric rail_fast ship cable_car subway" speed="8.33" length="30.58" shape="22255.53,15424.87 22243.80,15453.11"/>
    </edge>
    <edge id=":cluster_29271680_494154248_5960119458_5960119459_5960119460_5960119461_5960119462_5960119463_5960119464_5" function="internal">
        <lane id=":cluster_29271680_494154248_5960119458_5960119459_5960119460_5960119461_5960119462_5960119463_5960119464_5_0" index="0" disallow="tram rail_urban rail rail_electric rail_fast ship cable_car subway" speed="8.33" length="4.82" shape="22255.53,15424.87 22253.05,15429.00"/>
    </edge>
    <edge id=":cluster_29271680_494154248_5960119458_5960119459_5960119460_5960119461_5960119462_5960119463_5960119464_13" function="internal">
        <lane id=":cluster_29271680_494154248_5960119458_5960119459_5960119460_5960119461_5960119462_5960119463_5960119464_13_0" index="0" disallow="tram rail_urban rail rail_electric rail_fast ship cable_car subway" speed="8.33" length="20.84" shape="22253.05,15429.00 22251.62,15431.38 22246.74,15435.04 22241.48,15435.07 22236.39,15430.71"/>
    </edge>
    <edge id=":cluster_29271680_494154248_5960119458_5960119459_5960119460_5960119461_5960119462_5960119463_5960119464_6" function="internal">
        <lane id=":cluster_29271680_494154248_5960119458_5960119459_5960119460_5960119461_5960119462_5960119463_5960119464_6_0" index="0" disallow="tram rail_urban rail rail_electric rail_fast ship cable_car subway" speed="7.90" length="19.70" shape="22239.01,15428.87 22242.52,15432.32 22245.95,15432.59 22249.31,15429.70 22252.59,15423.63"/>
    </edge>
    <edge id=":cluster_29271680_494154248_5960119458_5960119459_5960119460_5960119461_5960119462_5960119463_5960119464_7" function="internal">
        <lane id=":cluster_29271680_494154248_5960119458_5960119459_5960119460_5960119461_5960119462_5960119463_5960119464_7_0" index="0" disallow="tram rail_urban rail rail_electric rail_fast ship cable_car subway" speed="8.33" length="28.99" shape="22239.01,15428.87 22243.38,15432.75 22250.53,15437.46 22258.01,15441.73 22263.38,15444.33"/>
    </edge>
    <edge id=":cluster_29271680_494154248_5960119458_5960119459_5960119460_5960119461_5960119462_5960119463_5960119464_8" function="internal">
        <lane id=":cluster_29271680_494154248_5960119458_5960119459_5960119460_5960119461_5960119462_5960119463_5960119464_8_0" index="0" disallow="tram rail_urban rail rail_electric rail_fast ship cable_car subway" speed="8.33" length="2.11" shape="22239.01,15428.87 22240.08,15430.69"/>
    </edge>
    <edge id=":cluster_29271680_494154248_5960119458_5960119459_5960119460_5960119461_5960119462_5960119463_5960119464_14" function="internal">
        <lane id=":cluster_29271680_494154248_5960119458_5960119459_5960119460_5960119461_5960119462_5960119463_5960119464_14_0" index="0" disallow="tram rail_urban rail rail_electric rail_fast ship cable_car subway" speed="8.33" length="23.67" shape="22240.08,15430.69 22242.79,15435.33 22244.85,15441.52 22245.19,15447.45 22243.80,15453.11"/>
    </edge>
    <edge id=":cluster_29271680_494154248_5960119458_5960119459_5960119460_5960119461_5960119462_5960119463_5960119464_9" function="internal">
        <lane id=":cluster_29271680_494154248_5960119458_5960119459_5960119460_5960119461_5960119462_5960119463_5960119464_9_0" index="0" disallow="tram rail_urban rail rail_electric rail_fast ship cable_car subway" speed="8.33" length="22.58" shape="22240.84,15451.91 22242.00,15447.04 22241.65,15441.89 22239.78,15436.44 22236.39,15430.71"/>
    </edge>
    <edge id=":cluster_29271680_494154248_5960119458_5960119459_5960119460_5960119461_5960119462_5960119463_5960119464_10" function="internal">
        <lane id=":cluster_29271680_494154248_5960119458_5960119459_5960119460_5960119461_5960119462_5960119463_5960119464_10_0" index="0" disallow="tram rail_urban rail rail_electric rail_fast ship cable_car subway" speed="8.33" length="30.62" shape="22240.84,15451.91 22252.59,15423.63"/>
    </edge>
    <edge id=":cluster_29271680_494154248_5960119458_5960119459_5960119460_5960119461_5960119462_5960119463_5960119464_11" function="internal">
        <lane id=":cluster_29271680_494154248_5960119458_5960119459_5960119460_5960119461_5960119462_5960119463_5960119464_11_0" index="0" disallow="tram rail_urban rail rail_electric rail_fast ship cable_car subway" speed="8.33" length="4.47" shape="22240.84,15451.91 22243.19,15448.11"/>
    </edge>
    <edge id=":cluster_29271680_494154248_5960119458_5960119459_5960119460_5960119461_5960119462_5960119463_5960119464_15" function="internal">
        <lane id=":cluster_29271680_494154248_5960119458_5960119459_5960119460_5960119461_5960119462_5960119463_5960119464_15_0" index="0" disallow="tram rail_urban rail rail_electric rail_fast ship cable_car subway" speed="8.33" length="22.49" shape="22243.19,15448.11 22244.39,15446.16 22249.33,15442.98 22255.66,15442.37 22263.38,15444.33"/>
    </edge>

    <edge id="-4615745#2" from="3457232025" to="cluster_29271680_494154248_5960119458_5960119459_5960119460_5960119461_5960119462_5960119463_5960119464" priority="3" type="highway.residential" shape="22156.10,15661.85 22166.92,15635.70 22203.29,15548.54 22242.32,15452.51">
        <lane id="-4615745#2_0" index="0" disallow="tram rail_urban rail rail_electric rail_fast ship cable_car subway" speed="8.33" length="226.39" shape="22154.62,15661.24 22165.44,15635.09 22201.81,15547.93 22240.84,15451.91"/>
    </edge>
    <edge id="-4615783#2" from="29271713" to="cluster_29271680_494154248_5960119458_5960119459_5960119460_5960119461_5960119462_5960119463_5960119464" priority="3" type="highway.residential" shape="22340.93,15475.90 22262.81,15445.82">
        <lane id="-4615783#2_0" index="0" disallow="tram rail_urban rail rail_electric rail_fast ship cable_car subway" speed="8.33" length="76.52" shape="22333.64,15474.81 22262.24,15447.31"/>
    </edge>
    <edge id="-4615783#3" from="29271712" to="29271713" priority="3" type="highway.residential">
        <lane id="-4615783#3_0" index="0" disallow="tram rail_urban rail rail_electric rail_fast ship cable_car subway" speed="8.33" length="73.43" shape="22415.60,15506.37 22347.08,15479.98"/>
    </edge>
    <edge id="-4615784" from="29271713" to="29271710" priority="3" type="highway.residential" shape="22340.93,15475.90 22263.16,15679.46 22255.01,15700.80">
        <lane id="-4615784_0" index="0" disallow="tram rail_urban rail rail_electric rail_fast ship cable_car subway" speed="8.33" length="233.54" shape="22339.85,15483.20 22264.65,15680.03 22256.50,15701.37"/>
    </edge>
    <edge id="-4616192#1" from="cluster_29271680_494154248_5960119458_5960119459_5960119460_5960119461_5960119462_5960119463_5960119464" to="29271719" priority="3" type="highway.residential" shape="22254.06,15424.25 22336.51,15229.27">
        <lane id="-4616192#1_0" index="0" disallow="tram rail_urban rail rail_electric rail_fast ship cable_car subway" speed="8.33" length="211.70" shape="22252.59,15423.63 22335.04,15228.65"/>
    </edge>
    <edge id="-625928996#0" from="cluster_29271680_494154248_5960119458_5960119459_5960119460_5960119461_5960119462_5960119463_5960119464" to="29271690" priority="3" type="highway.residential" shape="22237.70,15429.79 22215.75,15398.66 22169.42,15332.92">
        <lane id="-625928996#0_0" index="0" disallow="tram rail_urban rail rail_electric rail_fast ship cable_car subway" speed="8.33" length="118.52" shape="22236.39,15430.71 22214.44,15399.58 22168.11,15333.84"/>
    </edge>
    <edge id="4615742#1" from="29271690" to="cluster_29271680_494154248_5960119458_5960119459_5960119460_5960119461_5960119462_5960119463_5960119464" priority="3" type="highway.residential" shape="22169.42,15332.92 22215.75,15398.66 22237.70,15429.79">
        <lane id="4615742#1_0" index="0" disallow="tram rail_urban rail rail_electric rail_fast ship cable_car subway" speed="8.33" length="118.52" shape="22170.73,15332.00 22217.06,15397.74 22239.01,15428.87"/>
    </edge>
    <edge id="4615745#2" from="cluster_29271680_494154248_5960119458_5960119459_5960119460_5960119461_5960119462_5960119463_5960119464" to="3457232025" priority="3" type="highway.residential" shape="22242.32,15452.51 22203.29,15548.54 22166.92,15635.70 22156.10,15661.85">
        <lane id="4615745#2_0" index="0" disallow="tram rail_urban rail rail_electric rail_fast ship cable_car subway" speed="8.33" length="226.41" shape="22243.80,15453.11 22204.77,15549.15 22168.40,15636.32 22157.58,15662.46"/>
    </edge>
    <edge id="4615783#2" from="cluster_29271680_494154248_5960119458_5960119459_5960119460_5960119461_5960119462_5960119463_5960119464" to="29271713" priority="3" type="highway.residential" shape="22262.81,15445.82 22340.93,15475.90">
        <lane id="4615783#2_0" index="0" disallow="tram rail_urban rail rail_electric rail_fast ship cable_car subway" speed="8.33" length="76.52" shape="22263.38,15444.33 22334.79,15471.82"/>
    </edge>
    <edge id="4615783#3" from="29271713" to="29271712" priority="3" type="highway.residential">
        <lane id="4615783#3_0" index="0" disallow="tram rail_urban rail rail_electric rail_fast ship cable_car subway" speed="8.33" length="73.43" shape="22348.23,15477.00 22416.76,15503.39"/>
    </edge>
    <edge id="4615784" from="29271710" to="29271713" priority="3" type="highway.residential" shape="22255.01,15700.80 22263.16,15679.46 22340.93,15475.90">
        <lane id="4615784_0" index="0" disallow="tram rail_urban rail rail_electric rail_fast ship cable_car subway" speed="8.33" length="233.55" shape="22253.52,15700.23 22261.67,15678.89 22336.86,15482.06"/>
    </edge>
    <edge id="4616192#1" from="29271719" to="cluster_29271680_494154248_5960119458_5960119459_5960119460_5960119461_5960119462_5960119463_5960119464" priority="3" type="highway.residential" shape="22336.51,15229.27 22254.06,15424.25">
        <lane id="4616192#1_0" index="0" disallow="tram rail_urban rail rail_electric rail_fast ship cable_car subway" speed="8.33" length="211.70" shape="22337.98,15229.89 22255.53,15424.87"/>
    </edge>

    <tlLogic id="cluster_29271680_494154248_5960119458_5960119459_5960119460_5960119461_5960119462_5960119463_5960119464" type="actuated" programID="0" offset="0">
        <phase duration="42" state="rrrGGgrrrGGg" minDur="5" maxDur="50"/>
        <phase duration="3"  state="rrryyyrrryyy"/>
        <phase duration="42" state="GGgrrrGGgrrr" minDur="5" maxDur="50"/>
        <phase duration="3"  state="yyyrrryyyrrr"/>
    </tlLogic>

    <junction id="29271690" type="dead_end" x="22169.42" y="15332.92" incLanes="-625928996#0_0" intLanes="" shape="22169.42,15332.92 22166.80,15334.76 22169.42,15332.92"/>
    <junction id="29271710" type="dead_end" x="22255.01" y="15700.80" incLanes="-4615784_0" intLanes="" shape="22255.01,15700.80 22258.00,15701.94 22255.01,15700.80"/>
    <junction id="29271712" type="dead_end" x="22416.18" y="15504.88" incLanes="4615783#3_0" intLanes="" shape="22416.18,15504.88 22417.33,15501.89 22416.18,15504.88"/>
    <junction id="29271713" type="right_before_left" x="22340.93" y="15475.90" incLanes="-4615783#3_0 4615783#2_0 4615784_0" intLanes=":29271713_0_0 :29271713_1_0 :29271713_2_0 :29271713_3_0 :29271713_4_0 :29271713_5_0" shape="22346.51,15481.48 22348.81,15475.50 22335.37,15470.33 22333.07,15476.30 22334.98,15477.52 22335.51,15478.32 22335.75,15479.25 22335.70,15480.31 22335.37,15481.49 22341.35,15483.78 22342.55,15481.86 22343.35,15481.33 22344.27,15481.09 22345.33,15481.14">
        <request index="0" response="000000" foes="001000" cont="0"/>
        <request index="1" response="110000" foes="111000" cont="0"/>
        <request index="2" response="000000" foes="100000" cont="0"/>
        <request index="3" response="000011" foes="100011" cont="0"/>
        <request index="4" response="000000" foes="000010" cont="0"/>
        <request index="5" response="001100" foes="001110" cont="0"/>
    </junction>
    <junction id="29271719" type="dead_end" x="22336.51" y="15229.27" incLanes="-4616192#1_0" intLanes="" shape="22336.51,15229.27 22333.56,15228.02 22336.51,15229.27"/>
    <junction id="3457232025" type="dead_end" x="22156.10" y="15661.85" incLanes="4615745#2_0" intLanes="" shape="22156.10,15661.85 22159.06,15663.07 22156.10,15661.85"/>
    <junction id="cluster_29271680_494154248_5960119458_5960119459_5960119460_5960119461_5960119462_5960119463_5960119464" type="traffic_light" x="22248.75" y="15438.35" incLanes="-4615783#2_0 4616192#1_0 4615742#1_0 -4615745#2_0" intLanes=":cluster_29271680_494154248_5960119458_5960119459_5960119460_5960119461_5960119462_5960119463_5960119464_0_0 :cluster_29271680_494154248_5960119458_5960119459_5960119460_5960119461_5960119462_5960119463_5960119464_1_0 :cluster_29271680_494154248_5960119458_5960119459_5960119460_5960119461_5960119462_5960119463_5960119464_12_0 :cluster_29271680_494154248_5960119458_5960119459_5960119460_5960119461_5960119462_5960119463_5960119464_3_0 :cluster_29271680_494154248_5960119458_5960119459_5960119460_5960119461_5960119462_5960119463_5960119464_4_0 :cluster_29271680_494154248_5960119458_5960119459_5960119460_5960119461_5960119462_5960119463_5960119464_13_0 :cluster_29271680_494154248_5960119458_5960119459_5960119460_5960119461_5960119462_5960119463_5960119464_6_0 :cluster_29271680_494154248_5960119458_5960119459_5960119460_5960119461_5960119462_5960119463_5960119464_7_0 :cluster_29271680_494154248_5960119458_5960119459_5960119460_5960119461_5960119462_5960119463_5960119464_14_0 :cluster_29271680_494154248_5960119458_5960119459_5960119460_5960119461_5960119462_5960119463_5960119464_9_0 :cluster_29271680_494154248_5960119458_5960119459_5960119460_5960119461_5960119462_5960119463_5960119464_10_0 :cluster_29271680_494154248_5960119458_5960119459_5960119460_5960119461_5960119462_5960119463_5960119464_15_0" shape="22261.66,15448.81 22263.96,15442.83 22260.35,15441.04 22257.73,15438.81 22256.08,15436.13 22255.41,15433.03 22255.72,15429.48 22257.01,15425.50 22251.11,15423.00 22249.33,15426.66 22247.53,15429.18 22245.74,15430.57 22243.93,15430.83 22242.13,15429.95 22240.32,15427.95 22235.08,15431.63 22237.36,15435.25 22239.02,15438.72 22240.04,15442.07 22240.44,15445.28 22240.21,15448.36 22239.36,15451.31 22245.28,15453.71 22246.83,15450.89 22248.86,15448.86 22251.35,15447.64 22254.31,15447.22 22257.75,15447.61">
        <request index="0"  response="000000010000" foes="000100010000" cont="0"/>
        <request index="1"  response="111000110000" foes="111100110000" cont="0"/>
        <request index="2"  response="110011110000" foes="110011110000" cont="1"/>
        <request index="3"  response="000000000000" foes="100010000000" cont="0"/>
        <request index="4"  response="000100000100" foes="100110000111" cont="0"/>
        <request index="5"  response="011100000100" foes="011110000110" cont="1"/>
        <request index="6"  response="010000000000" foes="010000000100" cont="0"/>
        <request index="7"  response="110000111000" foes="110000111100" cont="0"/>
        <request index="8"  response="110000110011" foes="110000110011" cont="1"/>
        <request index="9"  response="000000000000" foes="000000100010" cont="0"/>
        <request index="10" response="000100000100" foes="000111100110" cont="0"/>
        <request index="11" response="000100011100" foes="000110011110" cont="1"/>
    </junction>

    <junction id=":cluster_29271680_494154248_5960119458_5960119459_5960119460_5960119461_5960119462_5960119463_5960119464_12_0" type="internal" x="22254.97" y="15442.96" incLanes=":cluster_29271680_494154248_5960119458_5960119459_5960119460_5960119461_5960119462_5960119463_5960119464_2_0 4615742#1_0" intLanes=":cluster_29271680_494154248_5960119458_5960119459_5960119460_5960119461_5960119462_5960119463_5960119464_4_0 :cluster_29271680_494154248_5960119458_5960119459_5960119460_5960119461_5960119462_5960119463_5960119464_5_0 :cluster_29271680_494154248_5960119458_5960119459_5960119460_5960119461_5960119462_5960119463_5960119464_6_0 :cluster_29271680_494154248_5960119458_5960119459_5960119460_5960119461_5960119462_5960119463_5960119464_7_0 :cluster_29271680_494154248_5960119458_5960119459_5960119460_5960119461_5960119462_5960119463_5960119464_10_0 :cluster_29271680_494154248_5960119458_5960119459_5960119460_5960119461_5960119462_5960119463_5960119464_11_0"/>
    <junction id=":cluster_29271680_494154248_5960119458_5960119459_5960119460_5960119461_5960119462_5960119463_5960119464_13_0" type="internal" x="22253.05" y="15429.00" incLanes=":cluster_29271680_494154248_5960119458_5960119459_5960119460_5960119461_5960119462_5960119463_5960119464_5_0 -4615745#2_0" intLanes=":cluster_29271680_494154248_5960119458_5960119459_5960119460_5960119461_5960119462_5960119463_5960119464_1_0 :cluster_29271680_494154248_5960119458_5960119459_5960119460_5960119461_5960119462_5960119463_5960119464_2_0 :cluster_29271680_494154248_5960119458_5960119459_5960119460_5960119461_5960119462_5960119463_5960119464_7_0 :cluster_29271680_494154248_5960119458_5960119459_5960119460_5960119461_5960119462_5960119463_5960119464_8_0 :cluster_29271680_494154248_5960119458_5960119459_5960119460_5960119461_5960119462_5960119463_5960119464_9_0 :cluster_29271680_494154248_5960119458_5960119459_5960119460_5960119461_5960119462_5960119463_5960119464_10_0"/>
    <junction id=":cluster_29271680_494154248_5960119458_5960119459_5960119460_5960119461_5960119462_5960119463_5960119464_14_0" type="internal" x="22240.08" y="15430.69" incLanes=":cluster_29271680_494154248_5960119458_5960119459_5960119460_5960119461_5960119462_5960119463_5960119464_8_0 -4615783#2_0" intLanes=":cluster_29271680_494154248_5960119458_5960119459_5960119460_5960119461_5960119462_5960119463_5960119464_0_0 :cluster_29271680_494154248_5960119458_5960119459_5960119460_5960119461_5960119462_5960119463_5960119464_1_0 :cluster_29271680_494154248_5960119458_5960119459_5960119460_5960119461_5960119462_5960119463_5960119464_4_0 :cluster_29271680_494154248_5960119458_5960119459_5960119460_5960119461_5960119462_5960119463_5960119464_5_0 :cluster_29271680_494154248_5960119458_5960119459_5960119460_5960119461_5960119462_5960119463_5960119464_10_0 :cluster_29271680_494154248_5960119458_5960119459_5960119460_5960119461_5960119462_5960119463_5960119464_11_0"/>
    <junction id=":cluster_29271680_494154248_5960119458_5960119459_5960119460_5960119461_5960119462_5960119463_5960119464_15_0" type="internal" x="22243.19" y="15448.11" incLanes=":cluster_29271680_494154248_5960119458_5960119459_5960119460_5960119461_5960119462_5960119463_5960119464_11_0 4616192#1_0" intLanes=":cluster_29271680_494154248_5960119458_5960119459_5960119460_5960119461_5960119462_5960119463_5960119464_1_0 :cluster_29271680_494154248_5960119458_5960119459_5960119460_5960119461_5960119462_5960119463_5960119464_2_0 :cluster_29271680_494154248_5960119458_5960119459_5960119460_5960119461_5960119462_5960119463_5960119464_3_0 :cluster_29271680_494154248_5960119458_5960119459_5960119460_5960119461_5960119462_5960119463_5960119464_4_0 :cluster_29271680_494154248_5960119458_5960119459_5960119460_5960119461_5960119462_5960119463_5960119464_7_0 :cluster_29271680_494154248_5960119458_5960119459_5960119460_5960119461_5960119462_5960119463_5960119464_8_0"/>

    <connection from="-4615745#2" to="-625928996#0" fromLane="0" toLane="0" via=":cluster_29271680_494154248_5960119458_5960119459_5960119460_5960119461_5960119462_5960119463_5960119464_9_0" tl="cluster_29271680_494154248_5960119458_5960119459_5960119460_5960119461_5960119462_5960119463_5960119464" linkIndex="9" dir="r" state="O"/>
    <connection from="-4615745#2" to="-4616192#1" fromLane="0" toLane="0" via=":cluster_29271680_494154248_5960119458_5960119459_5960119460_5960119461_5960119462_5960119463_5960119464_10_0" tl="cluster_29271680_494154248_5960119458_5960119459_5960119460_5960119461_5960119462_5960119463_5960119464" linkIndex="10" dir="s" state="O"/>
    <connection from="-4615745#2" to="4615783#2" fromLane="0" toLane="0" via=":cluster_29271680_494154248_5960119458_5960119459_5960119460_5960119461_5960119462_5960119463_5960119464_11_0" tl="cluster_29271680_494154248_5960119458_5960119459_5960119460_5960119461_5960119462_5960119463_5960119464" linkIndex="11" dir="l" state="o"/>
    <connection from="-4615783#2" to="4615745#2" fromLane="0" toLane="0" via=":cluster_29271680_494154248_5960119458_5960119459_5960119460_5960119461_5960119462_5960119463_5960119464_0_0" tl="cluster_29271680_494154248_5960119458_5960119459_5960119460_5960119461_5960119462_5960119463_5960119464" linkIndex="0" dir="r" state="o"/>
    <connection from="-4615783#2" to="-625928996#0" fromLane="0" toLane="0" via=":cluster_29271680_494154248_5960119458_5960119459_5960119460_5960119461_5960119462_5960119463_5960119464_1_0" tl="cluster_29271680_494154248_5960119458_5960119459_5960119460_5960119461_5960119462_5960119463_5960119464" linkIndex="1" dir="s" state="o"/>
    <connection from="-4615783#2" to="-4616192#1" fromLane="0" toLane="0" via=":cluster_29271680_494154248_5960119458_5960119459_5960119460_5960119461_5960119462_5960119463_5960119464_2_0" tl="cluster_29271680_494154248_5960119458_5960119459_5960119460_5960119461_5960119462_5960119463_5960119464" linkIndex="2" dir="l" state="o"/>
    <connection from="-4615783#3" to="-4615784" fromLane="0" toLane="0" via=":29271713_0_0" dir="r" state="M"/>
    <connection from="-4615783#3" to="-4615783#2" fromLane="0" toLane="0" via=":29271713_1_0" dir="s" state="="/>
    <connection from="4615742#1" to="-4616192#1" fromLane="0" toLane="0" via=":cluster_29271680_494154248_5960119458_5960119459_5960119460_5960119461_5960119462_5960119463_5960119464_6_0" tl="cluster_29271680_494154248_5960119458_5960119459_5960119460_5960119461_5960119462_5960119463_5960119464" linkIndex="6" dir="r" state="o"/>
    <connection from="4615742#1" to="4615783#2" fromLane="0" toLane="0" via=":cluster_29271680_494154248_5960119458_5960119459_5960119460_5960119461_5960119462_5960119463_5960119464_7_0" tl="cluster_29271680_494154248_5960119458_5960119459_5960119460_5960119461_5960119462_5960119463_5960119464" linkIndex="7" dir="s" state="o"/>
    <connection from="4615742#1" to="4615745#2" fromLane="0" toLane="0" via=":cluster_29271680_494154248_5960119458_5960119459_5960119460_5960119461_5960119462_5960119463_5960119464_8_0" tl="cluster_29271680_494154248_5960119458_5960119459_5960119460_5960119461_5960119462_5960119463_5960119464" linkIndex="8" dir="l" state="o"/>
    <connection from="4615783#2" to="4615783#3" fromLane="0" toLane="0" via=":29271713_2_0" dir="s" state="M"/>
    <connection from="4615783#2" to="-4615784" fromLane="0" toLane="0" via=":29271713_3_0" dir="l" state="="/>
    <connection from="4615784" to="-4615783#2" fromLane="0" toLane="0" via=":29271713_4_0" dir="r" state="M"/>
    <connection from="4615784" to="4615783#3" fromLane="0" toLane="0" via=":29271713_5_0" dir="l" state="="/>
    <connection from="4616192#1" to="4615783#2" fromLane="0" toLane="0" via=":cluster_29271680_494154248_5960119458_5960119459_5960119460_5960119461_5960119462_5960119463_5960119464_3_0" tl="cluster_29271680_494154248_5960119458_5960119459_5960119460_5960119461_5960119462_5960119463_5960119464" linkIndex="3" dir="r" state="O"/>
    <connection from="4616192#1" to="4615745#2" fromLane="0" toLane="0" via=":cluster_29271680_494154248_5960119458_5960119459_5960119460_5960119461_5960119462_5960119463_5960119464_4_0" tl="cluster_29271680_494154248_5960119458_5960119459_5960119460_5960119461_5960119462_5960119463_5960119464" linkIndex="4" dir="s" state="O"/>