<?xml version="1.0" encoding="UTF-8"?>

<!-- generated on 2026-02-11 22:52:49.319393 by Eclipse SUMO cutRoutes.py v1.26.0
<configuration>
    <routes-output value="J/J.rou.xml"/>
    <orig-net value="berlin-small.net.xml"/>
    <network value="J/J.net.xml"/>
    <routeFiles value="berlin-small.rou.xml"/>
</configuration>
-->

<routes xmlns:xsi="http://www.w3.org/2001/XMLSchema-instance" xsi:noNamespaceSchemaLocation="http://sumo.dlr.de/xsd/routes_file.xsd">
    <vType id="DefaultVehicle" length="5.00" minGap="2.00" maxSpeed="50.00" accel="1.50" decel="4.50" sigma="0.50" tau="1.00"/>
    <vehicle id="982" type="DefaultVehicle" depart="4122.32" departLane="best" departSpeed="max">
        <route edges="4615742#1 -4616192#1"/>
    </vehicle>
    <vehicle id="1781" type="DefaultVehicle" depart="6605.12" departLane="best" departSpeed="max">
        <route edges="4615742#1 -4616192#1"/>
    </vehicle>
    <vehicle id="2538" type="DefaultVehicle" depart="8288.00">
        <route edges="4616192#1 4615745#2"/>
    </vehicle>
    <vehicle id="2656" type="DefaultVehicle" depart="8633.00">
        <route edges="4615742#1 4615745#2"/>
    </vehicle>
    <vehicle id="2636" type="DefaultVehicle" depart="8652.50" departLane="best" departSpeed="max">
        <route edges="-4615783#3 -4615783#2 -625928996#0"/>
    </vehicle>
    <vehicle id="2714" type="DefaultVehicle" depart="8832.00">
        <route edges="-4616192#1"/>
    </vehicle>
    <vehicle id="4293" type="DefaultVehicle" depart="12287.63" departLane="best" departSpeed="max">
        <route edges="4615742#1"/>
    </vehicle>
    <vehicle id="5628" type="DefaultVehicle" depart="13257.95" departLane="best" departSpeed="max">
        <route edges="4615742#1 4615783#2 4615783#3"/>
    </vehicle>
    <vehicle id="6284" type="DefaultVehicle" depart="13785.00">
        <route edges="4615783#3"/>
    </vehicle>
    <vehicle id="7984" type="DefaultVehicle" depart="15138.00">
        <route edges="4615742#1 4615745#2"/>
    </vehicle>
    <vehicle id="8315" type="DefaultVehicle" depart="15429.46" departLane="best" departSpeed="max">
        <route edges="4615742#1 4615745#2"/>
    </vehicle>
    <vehicle id="9037" type="DefaultVehicle" depart="15755.00">
        <route edges="-4616192#1"/>
    </vehicle>
    <vehicle id="9344" type="DefaultVehicle" depart="15937.00">
        <route edges="4615742#1 4615783#2 4615783#3"/>
    </vehicle>
    <vehicle id="9398" type="DefaultVehicle" depart="16223.43" departLane="best" departSpeed="max">
        <route edges="4615742#1 4615783#2 4615783#3"/>
    </vehicle>
    <vehicle id="9927" type="DefaultVehicle" depart="16270.37" departLane="best" departSpeed="max">
        <route edges="4616192#1 4615783#2 4615783#3"/>
    </vehicle>
    <vehicle id="9228" type="DefaultVehicle" depart="16321.78" departLane="best" departSpeed="max">
        <route edges="4615742#1 -4616192#1"/>
    </vehicle>
    <vehicle id="10242" type="DefaultVehicle" depart="16638.75" departLane="best" departSpeed="max">
        <route edges="-4615783#3 -4615783#2 -625928996#0"/>
    </vehicle>
    <vehicle id="11144" type="DefaultVehicle" depart="16870.08" departLane="best" departSpeed="max">
        <route edges="4615742#1 4615745#2"/>
    </vehicle>
    <vehicle id="13516" type="DefaultVehicle" depart="17746.35" departLane="best" departSpeed="max">
        <route edges="-4615783#3 -4615783#2 -625928996#0"/>
    </vehicle>
    <vehicle id="13529" type="DefaultVehicle" depart="17849.02" departLane="best" departSpeed="max">
        <route edges="4615742#1 4615783#2 4615783#3"/>
    </vehicle>
    <vehicle id="14526" type="DefaultVehicle" depart="18023.00">
        <route edges="4615783#3"/>
    </vehicle>
    <vehicle id="15054" type="DefaultVehicle" depart="18302.49" departLane="best" departSpeed="max">
        <route edges="4615742#1 4615783#2 4615783#3"/>
    </vehicle>
    <vehicle id="15328" type="DefaultVehicle" depart="18307.28" departLane="best" departSpeed="max">
        <route edges="-4615783#3 -4615783#2 -625928996#0"/>
    </vehicle>
    <vehicle id="14422" type="DefaultVehicle" depart="18432.46" departLane="best" departSpeed="max">
        <route edges="4615742#1 4615783#2 4615783#3"/>
    </vehicle>
    <vehicle id="16647" type="DefaultVehicle" depart="18562.87" departLane="best" departSpeed="max">
        <route edges="-4615783#3 -4615783#2 -625928996#0"/>
    </vehicle>
    <vehicle id="16713" type="DefaultVehicle" depart="18719.50" departLane="best" departSpeed="max">
        <route edges="4615784 4615783#3"/>
    </vehicle>
    <vehicle id="17558" type="DefaultVehicle" depart="18904.02" departLane="best" departSpeed="max">
        <route edges="-4615783#3 -4615783#2 4615745#2"/>
    </vehicle>
    <vehicle id="18567" type="DefaultVehicle" depart="18933.00">
        <route edges="4615784 -4615783#2 -625928996#0"/>
    </vehicle>
    <vehicle id="17749" type="DefaultVehicle" depart="18960.69" departLane="best" departSpeed="max">
        <route edges="4615742#1 4615783#2 4615783#3"/>
    </vehicle>
    <vehicle id="18402" type="DefaultVehicle" depart="19054.67" departLane="best" departSpeed="max">
        <route edges="4615742#1 4615783#2 4615783#3"/>
    </vehicle>
    <vehicle id="20687" type="DefaultVehicle" depart="19443.88" departLane="best" departSpeed="max">
        <route edges="4615784"/>
    </vehicle>
    <vehicle id="24229" type="DefaultVehicle" depart="19731.00">
        <route edges="4615742#1 4615783#2 4615783#3"/>
    </vehicle>
    <vehicle id="30374" type="DefaultVehicle" depart="20329.82" departLane="best" departSpeed="max">
        <route edges="4615784 4615783#3"/>
    </vehicle>
    <vehicle id="26285" type="DefaultVehicle" depart="20354.13" departLane="best" departSpeed="max">
        <route edges="-4615745#2 -625928996#0"/>
    </vehicle>
    <vehicle id="27529" type="DefaultVehicle" depart="20709.71" departLane="best" departSpeed="max">
        <route edges="4615784"/>
    </vehicle>
    <vehicle id="38825" type="DefaultVehicle" depart="20912.00">
        <route edges="4615784 -4615783#2 4615745#2"/>
    </vehicle>
    <vehicle id="40628" type="DefaultVehicle" depart="21029.00">
        <route edges="4615745#2"/>
    </vehicle>
    <vehicle id="34270" type="DefaultVehicle" depart="21067.63" departLane="best" departSpeed="max">
        <route edges="4615742#1"/>
    </vehicle>
    <vehicle id="35194" type="DefaultVehicle" depart="21072.32" departLane="best" departSpeed="max">
        <route edges="4615742#1 4615783#2 4615783#3"/>
    </vehicle>
    <vehicle id="42203" type="DefaultVehicle" depart="21128.00">
        <route edges="4615742#1 4615783#2 4615783#3"/>
    </vehicle>
    <vehicle id="42271" type="DefaultVehicle" depart="21132.00">
        <route edges="4615783#2 -4615784"/>
    </vehicle>
    <vehicle id="37568" type="DefaultVehicle" depart="21292.23" departLane="best" departSpeed="max">
        <route edges="-4615783#3 -4615783#2 4615745#2"/>
    </vehicle>
    <vehicle id="45732" type="DefaultVehicle" depart="21339.00">
        <route edges="4615742#1 4615783#2 -4615784"/>
    </vehicle>
    <vehicle id="46929" type="DefaultVehicle" depart="21424.12" departLane="best" departSpeed="max">
        <route edges="4615742#1 -4616192#1"/>
    </vehicle>
    <vehicle id="49210" type="DefaultVehicle" depart="21541.00">
        <route edges="4615783#2 4615783#3"/>
    </vehicle>
    <vehicle id="49720" type="DefaultVehicle" depart="21572.00">
        <route edges="4615784 4615783#3"/>
    </vehicle>
    <vehicle id="51064" type="DefaultVehicle" depart="21650.00">
        <route edges="4615783#2 4615783#3"/>
    </vehicle>
    <vehicle id="50962" type="DefaultVehicle" depart="21655.50" departLane="best" departSpeed="max">
        <route edges="-4615745#2 -4616192#1"/>
    </vehicle>
    <vehicle id="53754" type="DefaultVehicle" depart="21811.12" departLane="best" departSpeed="max">
        <route edges="4615742#1 4615783#2 4615783#3"/>
    </vehicle>
    <vehicle id="54739" type="DefaultVehicle" depart="21853.66" departLane="best" departSpeed="max">
        <route edges="4616192#1 4615783#2 4615783#3"/>
    </vehicle>
    <vehicle id="54326" type="DefaultVehicle" depart="21863.37" departLane="best" departSpeed="max">
        <route edges="4616192#1 4615783#2 4615783#3"/>
    </vehicle>
    <vehicle id="56586" type="DefaultVehicle" depart="21944.00">
        <route edges="4615745#2"/>
    </vehicle>
    <vehicle id="57444" type="DefaultVehicle" depart="21988.00">
        <route edges="4615783#2 -4615784"/>
    </vehicle>
    <vehicle id="58650" type="DefaultVehicle" depart="22057.00">
        <route edges="4615745#2"/>
    </vehicle>
    <vehicle id="43800" type="DefaultVehicle" depart="22114.03" departLane="best" departSpeed="max">
        <route edges="-4615783#3 -4615783#2 -4616192#1"/>
    </vehicle>
    <vehicle id="57918" type="DefaultVehicle" depart="22127.29" departLane="best" departSpeed="max">
        <route edges="4615742#1 4615783#2 4615783#3"/>
    </vehicle>
    <vehicle id="52260" type="DefaultVehicle" depart="22138.09" departLane="best" departSpeed="max">
        <route edges="4615742#1 4615783#2"/>
    </vehicle>
    <vehicle id="50186" type="DefaultVehicle" depart="22176.27" departLane="best" departSpeed="max">
        <route edges="4615742#1 4615745#2"/>
    </vehicle>
    <vehicle id="62078" type="DefaultVehicle" depart="22241.00">
        <route edges="4615783#3"/>
    </vehicle>
    <vehicle id="62694" type="DefaultVehicle" depart="22274.00">
        <route edges="4615742#1 4615783#2 4615783#3"/>
    </vehicle>
    <vehicle id="59182" type="DefaultVehicle" depart="22274.28" departLane="best" departSpeed="max">
        <route edges="4615742#1 4615783#2 4615783#3"/>
    </vehicle>
    <vehicle id="51091" type="DefaultVehicle" depart="22301.51" departLane="best" departSpeed="max">
        <route edges="4615742#1 4615745#2"/>
    </vehicle>
    <vehicle id="63257" type="DefaultVehicle" depart="22306.00">
        <route edges="4615745#2"/>
    </vehicle>
    <vehicle id="63528" type="DefaultVehicle" depart="22320.00">
        <route edges="4615745#2"/>
    </vehicle>
    <vehicle id="47988" type="DefaultVehicle" depart="22410.79" departLane="best" departSpeed="max">
        <route edges="4615742#1"/>
    </vehicle>
    <vehicle id="65983" type="DefaultVehicle" depart="22447.00">
        <route edges="4615783#3"/>
    </vehicle>
    <vehicle id="64893" type="DefaultVehicle" depart="22457.05" departLane="best" departSpeed="max">
        <route edges="4615742#1 4615783#2 4615783#3"/>
    </vehicle>
    <vehicle id="62412" type="DefaultVehicle" depart="22477.93" departLane="best" departSpeed="max">
        <route edges="4615742#1 4615745#2"/>
    </vehicle>
    <vehicle id="56462" type="DefaultVehicle" depart="22504.95" departLane="best" departSpeed="max">
        <route edges="-4615783#3 -4615783#2 -625928996#0"/>
    </vehicle>
    <vehicle id="67030" type="DefaultVehicle" depart="22540.05" departLane="best" departSpeed="max">
        <route edges="-4615783#3 -4615783#2 -625928996#0"/>
    </vehicle>
    <vehicle id="67878" type="DefaultVehicle" depart="22554.66" departLane="best" departSpeed="max">
        <route edges="4616192#1 4615783#2 4615783#3"/>
    </vehicle>
    <vehicle id="65880" type="DefaultVehicle" depart="22612.55" departLane="best" departSpeed="max">
        <route edges="4615742#1 -4616192#1"/>
    </vehicle>
    <vehicle id="59274" type="DefaultVehicle" depart="22632.80" departLane="best" departSpeed="max">
        <route edges="-4615783#3 -4615783#2 4615745#2"/>
    </vehicle>
    <vehicle id="66847" type="DefaultVehicle" depart="22741.77" departLane="best" departSpeed="max">
        <route edges="-4615745#2 4615783#2 4615783#3"/>
    </vehicle>
    <vehicle id="60619" type="DefaultVehicle" depart="22795.88" departLane="best" departSpeed="max">
        <route edges="4615742#1 4615745#2"/>
    </vehicle>
    <vehicle id="74588" type="DefaultVehicle" depart="22896.00">
        <route edges="4615784 -4615783#2 -625928996#0"/>
    </vehicle>
    <vehicle id="74936" type="DefaultVehicle" depart="22913.00">
        <route edges="4615745#2"/>
    </vehicle>
    <vehicle id="74554" type="DefaultVehicle" depart="22930.08" departLane="best" departSpeed="max">
        <route edges="4615742#1 4615745#2"/>
    </vehicle>
    <vehicle id="74466" type="DefaultVehicle" depart="23036.44" departLane="best" departSpeed="max">
        <route edges="-4615745#2 -625928996#0"/>
    </vehicle>
    <vehicle id="61736" type="DefaultVehicle" depart="23047.80" departLane="best" departSpeed="max">
        <route edges="4615742#1 4615745#2"/>
    </vehicle>
    <vehicle id="77481" type="DefaultVehicle" depart="23050.66" departLane="best" departSpeed="max">
        <route edges="4616192#1 4615783#2 4615783#3"/>
    </vehicle>
    <vehicle id="75464" type="DefaultVehicle" depart="23084.87" departLane="best" departSpeed="max">
        <route edges="4615742#1 4615783#2 4615783#3"/>
    </vehicle>
    <vehicle id="76051" type="DefaultVehicle" depart="23149.77" departLane="best" departSpeed="max">
        <route edges="4615742#1 4615745#2"/>
    </vehicle>
    <vehicle id="79660" type="DefaultVehicle" depart="23157.00">
        <route edges="4615742#1 -4616192#1"/>
    </vehicle>
    <vehicle id="80942" type="DefaultVehicle" depart="23226.00">
        <route edges="4615745#2"/>
    </vehicle>
    <vehicle id="81160" type="DefaultVehicle" depart="23237.00">
        <route edges="4615742#1 -4616192#1"/>
    </vehicle>
    <vehicle id="80004" type="DefaultVehicle" depart="23342.07" departLane="best" departSpeed="max">
        <route edges="4615742#1 4615745#2"/>
    </vehicle>
    <vehicle id="80293" type="DefaultVehicle" depart="23356.24" departLane="best" departSpeed="max">
        <route edges="-4615745#2 4615783#2 4615783#3"/>
    </vehicle>
    <vehicle id="71666" type="DefaultVehicle" depart="23427.69" departLane="best" departSpeed="max">
        <route edges="4615784 -4615783#2 -625928996#0"/>
    </vehicle>
    <vehicle id="79818" type="DefaultVehicle" depart="23483.91" departLane="best" departSpeed="max">
        <route edges="4615742#1 4615745#2"/>
    </vehicle>
    <vehicle id="85711" type="DefaultVehicle" depart="23541.91" departLane="best" departSpeed="max">
        <route edges="-4615783#3 -4615783#2 4615745#2"/>
    </vehicle>
    <vehicle id="87951" type="DefaultVehicle" depart="23567.00">
        <route edges="4615742#1 4615783#2 4615783#3"/>
    </vehicle>
    <vehicle id="87234" type="DefaultVehicle" depart="23570.08" departLane="best" departSpeed="max">
        <route edges="4615742#1 4615783#2 4615783#3"/>
    </vehicle>
    <vehicle id="68827" type="DefaultVehicle" depart="23576.65" departLane="best" departSpeed="max">
        <route edges="-4615783#3 -4615783#2 4615745#2"/>
    </vehicle>
    <vehicle id="89124" type="DefaultVehicle" depart="23621.00">
        <route edges="4615784 4615783#3"/>
    </vehicle>
    <vehicle id="76319" type="DefaultVehicle" depart="23663.10" departLane="best" departSpeed="max">
        <route edges="4615784"/>
    </vehicle>
    <vehicle id="92807" type="DefaultVehicle" depart="23792.38" departLane="best" departSpeed="max">
        <route edges="-4615783#3 -4615783#2 -625928996#0"/>
    </vehicle>
    <vehicle id="80918" type="DefaultVehicle" depart="23877.30" departLane="best" departSpeed="max">
        <route edges="4615784 -4615783#2 -625928996#0"/>
    </vehicle>
    <vehicle id="96045" type="DefaultVehicle" depart="23933.00">
        <route edges="-4616192#1"/>
    </vehicle>
    <vehicle id="95409" type="DefaultVehicle" depart="24047.83" departLane="best" departSpeed="max">
        <route edges="-4615783#3 -4615783#2 4615745#2"/>
    </vehicle>
    <vehicle id="98569" type="DefaultVehicle" depart="24081.08" departLane="best" departSpeed="max">
        <route edges="4615742#1 4615783#2 4615783#3"/>
    </vehicle>
    <vehicle id="92829" type="DefaultVehicle" depart="24109.14" departLane="best" departSpeed="max">
        <route edges="-4615745#2 -625928996#0"/>
    </vehicle>
    <vehicle id="90215" type="DefaultVehicle" depart="24116.01" departLane="best" departSpeed="max">
        <route edges="4615742#1 4615783#2 4615783#3"/>
    </vehicle>
    <vehicle id="99683" type="DefaultVehicle" depart="24116.09" departLane="best" departSpeed="max">
        <route edges="-4615783#3 -4615783#2 -625928996#0"/>
    </vehicle>
    <vehicle id="100936" type="DefaultVehicle" depart="24186.08" departLane="best" departSpeed="max">
        <route edges="4615742#1 4615745#2"/>
    </vehicle>
    <vehicle id="101492" type="DefaultVehicle" depart="24209.08" departLane="best" departSpeed="max">
        <route edges="4615742#1 4615745#2"/>
    </vehicle>
    <vehicle id="89950" type="DefaultVehicle" depart="24299.13" departLane="best" departSpeed="max">
        <route edges="-4615783#3 -4615783#2 4615745#2"/>
    </vehicle>
    <vehicle id="104925" type="DefaultVehicle" depart="24329.98" departLane="best" departSpeed="max">
        <route edges="4615784 4615783#3"/>
    </vehicle>
    <vehicle id="105776" type="DefaultVehicle" depart="24361.00">
        <route edges="4615783#3"/>
    </vehicle>
    <vehicle id="97750" type="DefaultVehicle" depart="24371.57" departLane="best" departSpeed="max">
        <route edges="4615784 4615783#3"/>
    </vehicle>
    <vehicle id="101230" type="DefaultVehicle" depart="24433.67" departLane="best" departSpeed="max">
        <route edges="-4615783#3 -4615783#2 4615745#2"/>
    </vehicle>
    <vehicle id="106666" type="DefaultVehicle" depart="24437.08" departLane="best" departSpeed="max">
        <route edges="4615742#1 4615783#2 4615783#3"/>
    </vehicle>
    <vehicle id="99545" type="DefaultVehicle" depart="24471.05" departLane="best" departSpeed="max">
        <route edges="-4615783#3 -4615783#2 4615745#2"/>
    </vehicle>
    <vehicle id="107140" type="DefaultVehicle" depart="24495.46" departLane="best" departSpeed="max">
        <route edges="4615742#1 4615783#2 4615783#3"/>
    </vehicle>
    <vehicle id="108704" type="DefaultVehicle" depart="24495.66" departLane="best" departSpeed="max">
        <route edges="4616192#1 4615783#2 -4615784"/>
    </vehicle>
    <vehicle id="109634" type="DefaultVehicle" depart="24531.00">
        <route edges="4615783#3"/>
    </vehicle>
    <vehicle id="81130" type="DefaultVehicle" depart="24539.83" departLane="best" departSpeed="max">
        <route edges="4615784"/>
    </vehicle>
    <vehicle id="93609" type="DefaultVehicle" depart="24546.18" departLane="best" departSpeed="max">
        <route edges="4615784 4615783#3"/>
    </vehicle>
    <vehicle id="111557" type="DefaultVehicle" depart="24617.00">
        <route edges="4615745#2"/>
    </vehicle>
    <vehicle id="111717" type="DefaultVehicle" depart="24624.00">
        <route edges="4615783#2 -4615784"/>
    </vehicle>
    <vehicle id="105628" type="DefaultVehicle" depart="24684.04" departLane="best" departSpeed="max">
        <route edges="-4615745#2 -4616192#1"/>
    </vehicle>
    <vehicle id="103557" type="DefaultVehicle" depart="24694.18" departLane="best" departSpeed="max">
        <route edges="4615742#1"/>
    </vehicle>
    <vehicle id="111088" type="DefaultVehicle" depart="24734.75" departLane="best" departSpeed="max">
        <route edges="4615742#1 4615745#2"/>
    </vehicle>
    <vehicle id="114389" type="DefaultVehicle" depart="24740.00">
        <route edges="4615783#3"/>
    </vehicle>
    <vehicle id="112904" type="DefaultVehicle" depart="24753.91" departLane="best" departSpeed="max">
        <route edges="-4615783#3 -4615783#2 -625928996#0"/>
    </vehicle>
    <vehicle id="114702" type="DefaultVehicle" depart="24755.00">
        <route edges="4615745#2"/>
    </vehicle>
    <vehicle id="114841" type="DefaultVehicle" depart="24779.12" departLane="best" departSpeed="max">
        <route edges="4615742#1 -4616192#1"/>
    </vehicle>
    <vehicle id="111638" type="DefaultVehicle" depart="24857.08" departLane="best" departSpeed="max">
        <route edges="4615742#1 4615745#2"/>
    </vehicle>
    <vehicle id="117612" type="DefaultVehicle" depart="24883.00">
        <route edges="4615745#2"/>
    </vehicle>
    <vehicle id="117626" type="DefaultVehicle" depart="24883.00">
        <route edges="4615745#2"/>
    </vehicle>
    <vehicle id="119376" type="DefaultVehicle" depart="24963.78" departLane="best" departSpeed="max">
        <route edges="-4615783#3 -4615783#2 4615745#2"/>
    </vehicle>
    <vehicle id="120294" type="DefaultVehicle" depart="24994.00">
        <route edges="4615784 4615783#3"/>
    </vehicle>
    <vehicle id="119472" type="DefaultVehicle" depart="24995.08" departLane="best" departSpeed="max">
        <route edges="4615742#1 4615745#2"/>
    </vehicle>
    <vehicle id="121950" type="DefaultVehicle" depart="25065.00">
        <route edges="4615783#2 4615783#3"/>
    </vehicle>
    <vehicle id="121032" type="DefaultVehicle" depart="25079.04" departLane="best" departSpeed="max">
        <route edges="-4615745#2 -4616192#1"/>
    </vehicle>
    <vehicle id="118766" type="DefaultVehicle" depart="25116.12" departLane="best" departSpeed="max">
        <route edges="4615742#1 4615745#2"/>
    </vehicle>
    <vehicle id="119638" type="DefaultVehicle" depart="25167.44" departLane="best" departSpeed="max">
        <route edges="4615742#1 4615745#2"/>
    </vehicle>
    <vehicle id="124729" type="DefaultVehicle" depart="25181.00">
        <route edges="4615745#2"/>
    </vehicle>
    <vehicle id="126178" type="DefaultVehicle" depart="25240.00">
        <route edges="4615745#2"/>
    </vehicle>
    <vehicle id="125632" type="DefaultVehicle" depart="25253.08" departLane="best" departSpeed="max">
        <route edges="4615742#1 4615783#2 4615783#3"/>
    </vehicle>
    <vehicle id="111354" type="DefaultVehicle" depart="25291.44" departLane="best" departSpeed="max">
        <route edges="-4615783#3 -4615783#2 4615745#2"/>
    </vehicle>
    <vehicle id="119386" type="DefaultVehicle" depart="25306.08" departLane="best" departSpeed="max">
        <route edges="4615784"/>
    </vehicle>
    <vehicle id="133852" type="DefaultVehicle" depart="25556.00">
        <route edges="4615742#1 4615783#2 4615783#3"/>
    </vehicle>
    <vehicle id="134897" type="DefaultVehicle" depart="25599.00">
        <route edges="4615783#3"/>
    </vehicle>
    <vehicle id="139197" type="DefaultVehicle" depart="25776.00">
        <route edges="4615742#1 4615783#2 4615783#3"/>
    </vehicle>
    <vehicle id="135765" type="DefaultVehicle" depart="25806.55" departLane="best" departSpeed="max">
        <route edges="4615742#1 4615745#2"/>
    </vehicle>
    <vehicle id="139700" type="DefaultVehicle" depart="25832.08" departLane="best" departSpeed="max">
        <route edges="4615742#1 4615783#2 4615783#3"/>
    </vehicle>
    <vehicle id="138471" type="DefaultVehicle" depart="25832.39" departLane="best" departSpeed="max">
        <route edges="-4615783#3 -4615783#2 -625928996#0"/>
    </vehicle>
    <vehicle id="139928" type="DefaultVehicle" depart="25841.08" departLane="best" departSpeed="max">
        <route edges="4615742#1 4615783#2 -4615784"/>
    </vehicle>
    <vehicle id="140960" type="DefaultVehicle" depart="25844.00">
        <route edges="4615742#1 4615745#2"/>
    </vehicle>
    <vehicle id="134725" type="DefaultVehicle" depart="25852.66" departLane="best" departSpeed="max">
        <route edges="4615784 4615783#3"/>
    </vehicle>
    <vehicle id="141491" type="DefaultVehicle" depart="25866.00">
        <route edges="4615745#2"/>
    </vehicle>
    <vehicle id="126383" type="DefaultVehicle" depart="25937.39" departLane="best" departSpeed="max">
        <route edges="-4615783#3 -4615783#2 4615745#2"/>
    </vehicle>
    <vehicle id="143376" type="DefaultVehicle" depart="25955.12" departLane="best" departSpeed="max">
        <route edges="4615742#1 4615783#2 4615783#3"/>
    </vehicle>
    <vehicle id="143861" type="DefaultVehicle" depart="25965.98" departLane="best" departSpeed="max">
        <route edges="4615784 4615783#3"/>
    </vehicle>
    <vehicle id="147181" type="DefaultVehicle" depart="26159.46" departLane="best" departSpeed="max">
        <route edges="4615742#1 4615783#2 4615783#3"/>
    </vehicle>
    <vehicle id="144828" type="DefaultVehicle" depart="26174.38" departLane="best" departSpeed="max">
        <route edges="4615742#1 4615745#2"/>
    </vehicle>
    <vehicle id="151073" type="DefaultVehicle" depart="26272.12" departLane="best" departSpeed="max">
        <route edges="-4615783#3 -4615783#2 -625928996#0"/>
    </vehicle>
    <vehicle id="151418" type="DefaultVehicle" depart="26300.91" departLane="best" departSpeed="max">
        <route edges="4616192#1 4615783#2 4615783#3"/>
    </vehicle>
    <vehicle id="150836" type="DefaultVehicle" depart="26304.46" departLane="best" departSpeed="max">
        <route edges="4615742#1 4615783#2 4615783#3"/>
    </vehicle>
    <vehicle id="153118" type="DefaultVehicle" depart="26317.00">
        <route edges="4615745#2"/>
    </vehicle>
    <vehicle id="153551" type="DefaultVehicle" depart="26334.00">
        <route edges="4615783#3"/>
    </vehicle>
    <vehicle id="152103" type="DefaultVehicle" depart="26404.06" departLane="best" departSpeed="max">
        <route edges="4615742#1 4615783#2 4615783#3"/>
    </vehicle>
    <vehicle id="154520" type="DefaultVehicle" depart="26410.37" departLane="best" departSpeed="max">
        <route edges="4616192#1 4615783#2 4615783#3"/>
    </vehicle>
    <vehicle id="153178" type="DefaultVehicle" depart="26416.27" departLane="best" departSpeed="max">
        <route edges="4615742#1 4615783#2 4615783#3"/>
    </vehicle>
    <vehicle id="154936" type="DefaultVehicle" depart="26419.10" departLane="best" departSpeed="max">
        <route edges="-4615745#2 -4616192#1"/>
    </vehicle>
    <vehicle id="137328" type="DefaultVehicle" depart="26453.28" departLane="best" departSpeed="max">
        <route edges="-4615783#3 -4615783#2 4615745#2"/>
    </vehicle>
    <vehicle id="146747" type="DefaultVehicle" depart="26454.89" departLane="best" departSpeed="max">
        <route edges="4615742#1 4615745#2"/>
    </vehicle>
    <vehicle id="157132" type="DefaultVehicle" depart="26467.00">
        <route edges="4615742#1 4615745#2"/>
    </vehicle>
    <vehicle id="127846" type="DefaultVehicle" depart="26477.53" departLane="best" departSpeed="max">
        <route edges="4615742#1 4615783#2 4615783#3"/>
    </vehicle>
    <vehicle id="158020" type="DefaultVehicle" depart="26500.00">
        <route edges="4615745#2"/>
    </vehicle>
    <vehicle id="141249" type="DefaultVehicle" depart="26508.05" departLane="best" departSpeed="max">
        <route edges="-4615783#3 -4615783#2 -4616192#1"/>
    </vehicle>
    <vehicle id="155406" type="DefaultVehicle" depart="26540.77" departLane="best" departSpeed="max">
        <route edges="4615742#1 4615745#2"/>
    </vehicle>
    <vehicle id="158966" type="DefaultVehicle" depart="26544.24" departLane="best" departSpeed="max">
        <route edges="-4615783#3 -4615783#2 -625928996#0"/>
    </vehicle>
    <vehicle id="159657" type="DefaultVehicle" depart="26573.50" departLane="best" departSpeed="max">
        <route edges="-4615745#2 -625928996#0"/>
    </vehicle>
    <vehicle id="160602" type="DefaultVehicle" depart="26595.00">
        <route edges="4615745#2"/>
    </vehicle>
    <vehicle id="160960" type="DefaultVehicle" depart="26608.00">
        <route edges="4615784 4615783#3"/>
    </vehicle>
    <vehicle id="160972" type="DefaultVehicle" depart="26609.00">
        <route edges="4615742#1 -4616192#1"/>
    </vehicle>
    <vehicle id="161660" type="DefaultVehicle" depart="26634.00">
        <route edges="4615742#1 -4616192#1"/>
    </vehicle>
    <vehicle id="159498" type="DefaultVehicle" depart="26648.86" departLane="best" departSpeed="max">
        <route edges="-4615783#3 -4615783#2 -625928996#0"/>
    </vehicle>
    <vehicle id="164441" type="DefaultVehicle" depart="26740.00">
        <route edges="4615783#2 4615783#3"/>
    </vehicle>
    <vehicle id="147846" type="DefaultVehicle" depart="26744.20" departLane="best" departSpeed="max">
        <route edges="-4615783#3 -4615783#2 -625928996#0"/>
    </vehicle>
    <vehicle id="165208" type="DefaultVehicle" depart="26769.00">
        <route edges="4615745#2"/>
    </vehicle>
    <vehicle id="159992" type="DefaultVehicle" depart="26789.37" departLane="best" departSpeed="max">
        <route edges="4615742#1 4615745#2"/>
    </vehicle>
    <vehicle id="160059" type="DefaultVehicle" depart="26799.53" departLane="best" departSpeed="max">
        <route edges="4615742#1 4615745#2"/>
    </vehicle>
    <vehicle id="155667" type="DefaultVehicle" depart="26805.03" departLane="best" departSpeed="max">
        <route edges="4615742#1 4615783#2 4615783#3"/>
    </vehicle>
    <vehicle id="140965" type="DefaultVehicle" depart="26806.20" departLane="best" departSpeed="max">
        <route edges="4615742#1 4615745#2"/>
    </vehicle>
    <vehicle id="166485" type="DefaultVehicle" depart="26825.78" departLane="best" departSpeed="max">
        <route edges="-4615783#3 -4615783#2 -625928996#0"/>
    </vehicle>
    <vehicle id="166892" type="DefaultVehicle" depart="26832.00">
        <route edges="-4616192#1"/>
    </vehicle>
    <vehicle id="166733" type="DefaultVehicle" depart="26861.08" departLane="best" departSpeed="max">
        <route edges="4615742#1"/>
    </vehicle>
    <vehicle id="152164" type="DefaultVehicle" depart="26883.39" departLane="best" departSpeed="max">
        <route edges="-4615745#2 -4616192#1"/>
    </vehicle>
    <vehicle id="168843" type="DefaultVehicle" depart="26905.00">
        <route edges="-4616192#1"/>
    </vehicle>
    <vehicle id="169402" type="DefaultVehicle" depart="26927.00">
        <route edges="4615784 4615783#3"/>
    </vehicle>