<?xml version="1.0" encoding="UTF-8"?>

<!-- generated on 2026-02-11T23:00:26.772000+01:00 by Eclipse SUMO netedit 1.25.0
<neteditConfiguration xmlns:xsi="http://www.w3.org/2001/XMLSchema-instance" xsi:noNamespaceSchemaLocation="http://sumo.dlr.de/xsd/neteditConfiguration.xsd">

    <input>
        <sumocfg-file value="/home/andrea/traffic-rl/scenarios/berlin-small/e.sumocfg"/>
        <sumo-net-file value="/home/andrea/traffic-rl/scenarios/berlin-small/e.net.xml"/>
    </input>

    <output>
        <output-file value="/home/andrea/traffic-rl/scenarios/berlin-small/e.net.xml"/>
    </output>

    <processing>
        <geometry.min-radius.fix.railways value="false"/>
        <geometry.avoid-overlap value="false"/>
        <geometry.max-grade.fix value="false"/>
        <offset.disable-normalization value="true"/>
        <lefthand value="0"/>
    </processing>

    <junctions>
        <no-turnarounds value="true"/>
        <junctions.corner-detail value="5"/>
        <junctions.limit-turn-speed value="5.50"/>
        <rectangular-lane-cut value="0"/>
    </junctions>

    <pedestrian>
        <walkingareas value="0"/>
    </pedestrian>

    <netedit>
        <ignore.routeelements value="false"/>
    </netedit>

</neteditConfiguration>
-->

<net version="1.20" junctionCornerDetail="5" limitTurnSpeed="5.50" avoidOverlap="0" xmlns:xsi="http://www.w3.org/2001/XMLSchema-instance" xsi:noNamespaceSchemaLocation="http://sumo.dlr.de/xsd/net_file.xsd">

    <location netOffset="-372355.98,-5804722.35" convBoundary="22445.10,15136.67,22794.31,15540.74" origBoundary="13.122591,52.383149,13.502221,52.618113" projParameter="+proj=utm +zone=33 +ellps=WGS84 +datum=WGS84 +units=m +no_defs"/>

    <type id="highway.primary" priority="12" numLanes="2" speed="27.78" disallow="tram rail_urban rail rail_electric rail_fast ship container cable_car subway aircraft wheelchair scooter drone" oneway="0"/>
    <type id="highway.residential" priority="3" numLanes="1" speed="13.89" disallow="tram rail_urban rail rail_electric rail_fast ship container cable_car subway aircraft wheelchair scooter drone" oneway="0"/>

    <edge id=":2688549286_0" function="internal">
        <lane id=":2688549286_0_0" index="0" disallow="tram rail_urban rail rail_electric rail_fast ship cable_car subway" speed="13.89" length="8.20" shape="22554.13,15386.40 22554.75,15384.06 22554.81,15382.36 22554.88,15380.66 22555.54,15378.34"/>
        <lane id=":2688549286_0_1" index="1" disallow="tram rail_urban rail rail_electric rail_fast ship cable_car subway" speed="13.89" length="8.20" shape="22557.12,15387.53 22557.73,15385.21 22557.79,15383.52 22557.86,15381.83 22558.51,15379.52"/>
        <lane id=":2688549286_0_2" index="2" disallow="tram rail_urban rail rail_electric rail_fast ship cable_car subway" speed="13.89" length="8.20" shape="22557.12,15387.53 22558.20,15385.39 22559.28,15384.11 22560.38,15382.82 22561.49,15380.70"/>
    </edge>
    <edge id=":29271715_0" function="internal">
        <lane id=":29271715_0_0" index="0" disallow="tram rail_urban rail rail_electric rail_fast ship cable_car subway" speed="8.33" length="0.10" shape="22526.36,15305.62 22526.36,15305.62"/>
    </edge>
    <edge id=":29271715_1" function="internal">
        <lane id=":29271715_1_0" index="0" disallow="tram rail_urban rail rail_electric rail_fast ship cable_car subway" speed="8.33" length="0.10" shape="22527.54,15302.64 22527.54,15302.64"/>
    </edge>
    <edge id=":7689833387_0" function="internal">
        <lane id=":7689833387_0_0" index="0" disallow="tram rail_urban rail rail_electric rail_fast ship cable_car subway" speed="13.89" length="8.21" shape="22629.28,15285.38 22628.65,15287.71 22628.58,15289.40 22628.51,15291.10 22627.87,15293.42"/>
        <lane id=":7689833387_0_1" index="1" disallow="tram rail_urban rail rail_electric rail_fast ship cable_car subway" speed="13.89" length="8.21" shape="22626.30,15284.22 22625.66,15286.55 22625.59,15288.24 22625.52,15289.93 22624.89,15292.26"/>
        <lane id=":7689833387_0_2" index="2" disallow="tram rail_urban rail rail_electric rail_fast ship cable_car subway" speed="13.89" length="8.21" shape="22626.30,15284.22 22625.20,15286.36 22624.10,15287.66 22623.01,15288.95 22621.91,15291.09"/>
    </edge>
    <edge id=":cluster_29271704_29271705_6911007220_6911007221_6911007222_6911007223_6911007224_6911007225_6911007226_6911007227_6911007228_6911007229_0" function="internal">
        <lane id=":cluster_29271704_29271705_6911007220_6911007221_6911007222_6911007223_6911007224_6911007225_6911007226_6911007227_6911007228_6911007229_0_0" index="0" disallow="tram rail_urban rail rail_electric rail_fast ship cable_car subway" speed="9.52" length="20.52" shape="22620.78,15343.07 22615.18,15341.72 22610.54,15342.41 22606.85,15345.13 22604.12,15349.89"/>
    </edge>
    <edge id=":cluster_29271704_29271705_6911007220_6911007221_6911007222_6911007223_6911007224_6911007225_6911007226_6911007227_6911007228_6911007229_1" function="internal">
        <lane id=":cluster_29271704_29271705_6911007220_6911007221_6911007222_6911007223_6911007224_6911007225_6911007226_6911007227_6911007228_6911007229_1_0" index="0" disallow="tram rail_urban rail rail_electric rail_fast ship cable_car subway" speed="8.33" length="58.96" shape="22620.78,15343.07 22565.96,15321.37"/>
    </edge>
    <edge id=":cluster_29271704_29271705_6911007220_6911007221_6911007222_6911007223_6911007224_6911007225_6911007226_6911007227_6911007228_6911007229_2" function="internal">
        <lane id=":cluster_29271704_29271705_6911007220_6911007221_6911007222_6911007223_6911007224_6911007225_6911007226_6911007227_6911007228_6911007229_2_0" index="0" disallow="tram rail_urban rail rail_electric rail_fast ship cable_car subway" speed="11.11" length="17.76" shape="22620.78,15343.07 22604.54,15335.89"/>
    </edge>
    <edge id=":cluster_29271704_29271705_6911007220_6911007221_6911007222_6911007223_6911007224_6911007225_6911007226_6911007227_6911007228_6911007229_14" function="internal">
        <lane id=":cluster_29271704_29271705_6911007220_6911007221_6911007222_6911007223_6911007224_6911007225_6911007226_6911007227_6911007228_6911007229_14_0" index="0" disallow="tram rail_urban rail rail_electric rail_fast ship cable_car subway" speed="11.11" length="29.75" shape="22604.54,15335.89 22603.70,15335.52 22592.21,15328.37 22586.31,15321.63 22585.99,15315.30"/>
    </edge>
    <edge id=":cluster_29271704_29271705_6911007220_6911007221_6911007222_6911007223_6911007224_6911007225_6911007226_6911007227_6911007228_6911007229_3" function="internal">
        <lane id=":cluster_29271704_29271705_6911007220_6911007221_6911007222_6911007223_6911007224_6911007225_6911007226_6911007227_6911007228_6911007229_3_0" index="0" disallow="tram rail_urban rail rail_electric rail_fast ship cable_car subway" speed="8.72" length="17.04" shape="22614.79,15326.93 22613.92,15331.13 22614.83,15334.72 22617.50,15337.71 22621.94,15340.09"/>
    </edge>
    <edge id=":cluster_29271704_29271705_6911007220_6911007221_6911007222_6911007223_6911007224_6911007225_6911007226_6911007227_6911007228_6911007229_4" function="internal">
        <lane id=":cluster_29271704_29271705_6911007220_6911007221_6911007222_6911007223_6911007224_6911007225_6911007226_6911007227_6911007228_6911007229_4_0" index="0" disallow="tram rail_urban rail rail_electric rail_fast ship cable_car subway" speed="13.89" length="25.34" shape="22614.79,15326.93 22604.12,15349.89"/>
        <lane id=":cluster_29271704_29271705_6911007220_6911007221_6911007222_6911007223_6911007224_6911007225_6911007226_6911007227_6911007228_6911007229_4_1" index="1" disallow="tram rail_urban rail rail_electric rail_fast ship cable_car subway" speed="13.89" length="25.34" shape="22611.83,15325.73 22601.14,15348.73"/>
    </edge>
    <edge id=":cluster_29271704_29271705_6911007220_6911007221_6911007222_6911007223_6911007224_6911007225_6911007226_6911007227_6911007228_6911007229_6" function="internal">
        <lane id=":cluster_29271704_29271705_6911007220_6911007221_6911007222_6911007223_6911007224_6911007225_6911007226_6911007227_6911007228_6911007229_6_0" index="0" disallow="tram rail_urban rail rail_electric rail_fast ship cable_car subway" speed="11.11" length="27.66" shape="22608.86,15324.53 22604.42,15328.85 22595.79,15329.76 22583.23,15327.32"/>
    </edge>
    <edge id=":cluster_29271704_29271705_6911007220_6911007221_6911007222_6911007223_6911007224_6911007225_6911007226_6911007227_6911007228_6911007229_15" function="internal">
        <lane id=":cluster_29271704_29271705_6911007220_6911007221_6911007222_6911007223_6911007224_6911007225_6911007226_6911007227_6911007228_6911007229_15_0" index="0" disallow="tram rail_urban rail rail_electric rail_fast ship cable_car subway" speed="11.11" length="18.27" shape="22583.23,15327.32 22582.97,15327.26 22565.96,15321.37"/>
    </edge>
    <edge id=":cluster_29271704_29271705_6911007220_6911007221_6911007222_6911007223_6911007224_6911007225_6911007226_6911007227_6911007228_6911007229_7" function="internal">
        <lane id=":cluster_29271704_29271705_6911007220_6911007221_6911007222_6911007223_6911007224_6911007225_6911007226_6911007227_6911007228_6911007229_7_0" index="0" disallow="tram rail_urban rail rail_electric rail_fast ship cable_car subway" speed="9.11" length="18.63" shape="22567.14,15318.39 22572.71,15319.94 22577.21,15319.74 22580.65,15317.80 22583.03,15314.10"/>
    </edge>
    <edge id=":cluster_29271704_29271705_6911007220_6911007221_6911007222_6911007223_6911007224_6911007225_6911007226_6911007227_6911007228_6911007229_8" function="internal">
        <lane id=":cluster_29271704_29271705_6911007220_6911007221_6911007222_6911007223_6911007224_6911007225_6911007226_6911007227_6911007228_6911007229_8_0" index="0" disallow="tram rail_urban rail rail_electric rail_fast ship cable_car subway" speed="8.33" length="58.94" shape="22567.14,15318.39 22621.94,15340.09"/>
    </edge>
    <edge id=":cluster_29271704_29271705_6911007220_6911007221_6911007222_6911007223_6911007224_6911007225_6911007226_6911007227_6911007228_6911007229_9" function="internal">
        <lane id=":cluster_29271704_29271705_6911007220_6911007221_6911007222_6911007223_6911007224_6911007225_6911007226_6911007227_6911007228_6911007229_9_0" index="0" disallow="tram rail_urban rail rail_electric rail_fast ship cable_car subway" speed="11.11" length="13.05" shape="22567.14,15318.39 22579.00,15323.84"/>
    </edge>
    <edge id=":cluster_29271704_29271705_6911007220_6911007221_6911007222_6911007223_6911007224_6911007225_6911007226_6911007227_6911007228_6911007229_16" function="internal">
        <lane id=":cluster_29271704_29271705_6911007220_6911007221_6911007222_6911007223_6911007224_6911007225_6911007226_6911007227_6911007228_6911007229_16_0" index="0" disallow="tram rail_urban rail rail_electric rail_fast ship cable_car subway" speed="11.11" length="36.10" shape="22579.00,15323.84 22584.15,15326.21 22595.48,15333.87 22601.14,15341.37 22601.14,15348.73"/>
    </edge>
    <edge id=":cluster_29271704_29271705_6911007220_6911007221_6911007222_6911007223_6911007224_6911007225_6911007226_6911007227_6911007228_6911007229_10" function="internal">
        <lane id=":cluster_29271704_29271705_6911007220_6911007221_6911007222_6911007223_6911007224_6911007225_6911007226_6911007227_6911007228_6911007229_10_0" index="0" disallow="tram rail_urban rail rail_electric rail_fast ship cable_car subway" speed="9.25" length="19.42" shape="22571.90,15337.32 22573.30,15331.93 22572.78,15327.48 22570.33,15323.96 22565.96,15321.37"/>
    </edge>
    <edge id=":cluster_29271704_29271705_6911007220_6911007221_6911007222_6911007223_6911007224_6911007225_6911007226_6911007227_6911007228_6911007229_11" function="internal">
        <lane id=":cluster_29271704_29271705_6911007220_6911007221_6911007222_6911007223_6911007224_6911007225_6911007226_6911007227_6911007228_6911007229_11_0" index="0" disallow="tram rail_urban rail rail_electric rail_fast ship cable_car subway" speed="13.89" length="25.73" shape="22571.90,15337.32 22583.03,15314.10"/>
        <lane id=":cluster_29271704_29271705_6911007220_6911007221_6911007222_6911007223_6911007224_6911007225_6911007226_6911007227_6911007228_6911007229_11_1" index="1" disallow="tram rail_urban rail rail_electric rail_fast ship cable_car subway" speed="13.89" length="25.73" shape="22574.88,15338.48 22585.99,15315.30"/>
    </edge>
    <edge id=":cluster_29271704_29271705_6911007220_6911007221_6911007222_6911007223_6911007224_6911007225_6911007226_6911007227_6911007228_6911007229_13" function="internal">
        <lane id=":cluster_29271704_29271705_6911007220_6911007221_6911007222_6911007223_6911007224_6911007225_6911007226_6911007227_6911007228_6911007229_13_0" index="0" disallow="tram rail_urban rail rail_electric rail_fast ship cable_car subway" speed="11.11" length="29.57" shape="22577.86,15339.64 22582.81,15334.24 22591.81,15332.52 22604.74,15334.45"/>
    </edge>
    <edge id=":cluster_29271704_29271705_6911007220_6911007221_6911007222_6911007223_6911007224_6911007225_6911007226_6911007227_6911007228_6911007229_17" function="internal">
        <lane id=":cluster_29271704_29271705_6911007220_6911007221_6911007222_6911007223_6911007224_6911007225_6911007226_6911007227_6911007228_6911007229_17_0" index="0" disallow="tram rail_urban rail rail_electric rail_fast ship cable_car subway" speed="11.11" length="18.10" shape="22604.74,15334.45 22604.85,15334.47 22621.94,15340.09"/>
    </edge>

    <edge id="-140498882#2" from="260495251" to="cluster_29271704_29271705_6911007220_6911007221_6911007222_6911007223_6911007224_6911007225_6911007226_6911007227_6911007228_6911007229" priority="3" type="highway.residential" shape="22794.31,15409.09 22634.45,15346.69 22621.36,15341.58">
        <lane id="-140498882#2_0" index="0" disallow="tram rail_urban rail rail_electric rail_fast ship cable_car subway" speed="8.33" length="185.66" shape="22793.73,15410.58 22633.87,15348.18 22620.78,15343.07"/>
    </edge>
    <edge id="-257244833#0" from="29271715" to="2628405643" priority="3" type="highway.residential">
        <lane id="-257244833#0_0" index="0" disallow="tram rail_urban rail rail_electric rail_fast ship cable_car subway" speed="8.33" length="60.03" shape="22526.36,15305.62 22470.59,15283.42"/>
    </edge>
    <edge id="-257244833#1" from="cluster_29271704_29271705_6911007220_6911007221_6911007222_6911007223_6911007224_6911007225_6911007226_6911007227_6911007228_6911007229" to="29271715" priority="3" type="highway.residential" shape="22566.55,15319.88 22526.95,15304.13">
        <lane id="-257244833#1_0" index="0" disallow="tram rail_urban rail rail_electric rail_fast ship cable_car subway" speed="8.33" length="42.62" shape="22565.96,15321.37 22526.36,15305.62"/>
    </edge>
    <edge id="140498882#2" from="cluster_29271704_29271705_6911007220_6911007221_6911007222_6911007223_6911007224_6911007225_6911007226_6911007227_6911007228_6911007229" to="260495251" priority="3" type="highway.residential" shape="22621.36,15341.58 22634.45,15346.69 22794.31,15409.09">
        <lane id="140498882#2_0" index="0" disallow="tram rail_urban rail rail_electric rail_fast ship cable_car subway" speed="8.33" length="185.66" shape="22621.94,15340.09 22635.03,15345.20 22794.89,15407.60"/>
    </edge>
    <edge id="203884042#1" from="cluster_12614653_1882193216_1882193222_29271706_4377814000_4377814001_4377814002_4377814003_4377814004_4377814005_4377814006_4377814007" to="2688549286" priority="12" type="highway.primary" spreadType="center" shape="22503.56,15523.06 22520.43,15478.90 22538.56,15431.93 22557.04,15383.23">
        <lane id="203884042#1_0" index="0" disallow="tram rail_urban rail rail_electric rail_fast ship cable_car subway" speed="13.89" length="159.31" shape="22497.21,15535.19 22518.94,15478.33 22537.07,15431.36 22554.13,15386.40"/>
        <lane id="203884042#1_1" index="1" disallow="tram rail_urban rail rail_electric rail_fast ship cable_car subway" speed="13.89" length="159.31" shape="22500.20,15536.34 22521.92,15479.47 22540.05,15432.50 22557.12,15387.53"/>
        <param key="ref" value="B 96a"/>
    </edge>
    <edge id="257244833#0" from="2628405643" to="29271715" priority="3" type="highway.residential">
        <lane id="257244833#0_0" index="0" disallow="tram rail_urban rail rail_electric rail_fast ship cable_car subway" speed="8.33" length="60.03" shape="22471.77,15280.44 22527.54,15302.64"/>
    </edge>
    <edge id="257244833#1" from="29271715" to="cluster_29271704_29271705_6911007220_6911007221_6911007222_6911007223_6911007224_6911007225_6911007226_6911007227_6911007228_6911007229" priority="3" type="highway.residential" shape="22526.95,15304.13 22566.55,15319.88">
        <lane id="257244833#1_0" index="0" disallow="tram rail_urban rail rail_electric rail_fast ship cable_car subway" speed="8.33" length="42.62" shape="22527.54,15302.64 22567.14,15318.39"/>
    </edge>
    <edge id="460217104#0" from="2688549286" to="cluster_29271704_29271705_6911007220_6911007221_6911007222_6911007223_6911007224_6911007225_6911007226_6911007227_6911007228_6911007229" priority="12" type="highway.primary" spreadType="center" shape="22557.04,15383.23 22569.95,15350.65 22573.38,15342.18">
        <lane id="460217104#0_0" index="0" disallow="tram rail_urban rail rail_electric rail_fast ship cable_car subway" speed="13.89" length="44.18" shape="22555.54,15378.34 22566.98,15349.47 22571.90,15337.32"/>
        <lane id="460217104#0_1" index="1" disallow="tram rail_urban rail rail_electric rail_fast ship cable_car subway" speed="13.89" length="44.18" shape="22558.51,15379.52 22569.95,15350.65 22574.88,15338.48"/>
        <lane id="460217104#0_2" index="2" disallow="tram rail_urban rail rail_electric rail_fast ship cable_car subway" speed="13.89" length="44.18" shape="22561.49,15380.70 22572.92,15351.83 22577.86,15339.64"/>
        <param key="ref" value="B 96a"/>
    </edge>
    <edge id="460217105#1" from="cluster_29271704_29271705_6911007220_6911007221_6911007222_6911007223_6911007224_6911007225_6911007226_6911007227_6911007228_6911007229" to="271400982" priority="12" type="highway.primary" spreadType="center" shape="22584.51,15314.70 22627.38,15208.56 22640.67,15173.96 22641.72,15170.93 22650.17,15148.16 22651.96,15136.67">
        <lane id="460217105#1_0" index="0" disallow="tram rail_urban rail rail_electric rail_fast ship cable_car subway" speed="13.89" length="190.66" shape="22583.03,15314.10 22625.89,15207.97 22639.17,15173.41 22640.21,15170.39 22648.61,15147.75 22650.38,15136.42"/>
        <lane id="460217105#1_1" index="1" disallow="tram rail_urban rail rail_electric rail_fast ship cable_car subway" speed="13.89" length="190.66" shape="22585.99,15315.30 22628.87,15209.15 22642.17,15174.51 22643.23,15171.47 22651.73,15148.57 22653.54,15136.92"/>
        <param key="ref" value="B 96a"/>
    </edge>
    <edge id="823635967#0" from="7689833387" to="cluster_29271704_29271705_6911007220_6911007221_6911007222_6911007223_6911007224_6911007225_6911007226_6911007227_6911007228_6911007229" priority="12" type="highway.primary" spreadType="center" shape="22626.34,15288.53 22613.70,15320.93">
        <lane id="823635967#0_0" index="0" disallow="tram rail_urban rail rail_electric rail_fast ship cable_car subway" speed="13.89" length="35.93" shape="22627.87,15293.42 22614.79,15326.93"/>
        <lane id="823635967#0_1" index="1" disallow="tram rail_urban rail rail_electric rail_fast ship cable_car subway" speed="13.89" length="35.93" shape="22624.89,15292.26 22611.83,15325.73"/>
        <lane id="823635967#0_2" index="2" disallow="tram rail_urban rail rail_electric rail_fast ship cable_car subway" speed="13.89" length="35.93" shape="22621.91,15291.09 22608.86,15324.53"/>
        <param key="ref" value="B 96a"/>
    </edge>
    <edge id="823635968#1" from="cluster_29271704_29271705_6911007220_6911007221_6911007222_6911007223_6911007224_6911007225_6911007226_6911007227_6911007228_6911007229" to="29784667" priority="12" type="highway.primary" spreadType="center" shape="22602.63,15349.31 22567.31,15439.82">
        <lane id="823635968#1_0" index="0" disallow="tram rail_urban rail rail_electric rail_fast ship cable_car subway" speed="13.89" length="97.16" shape="22604.12,15349.89 22568.80,15440.40"/>
        <lane id="823635968#1_1" index="1" disallow="tram rail_urban rail rail_electric rail_fast ship cable_car subway" speed="13.89" length="97.16" shape="22601.14,15348.73 22565.82,15439.24"/>
        <param key="ref" value="B 96a"/>
    </edge>
    <edge id="823635969" from="29271700" to="7689833387" priority="12" type="highway.primary" spreadType="center" shape="22693.69,15166.95 22679.68,15171.07 22671.57,15175.98 22668.36,15180.50 22667.25,15183.64 22657.51,15208.61 22626.34,15288.53">
        <lane id="823635969_0" index="0" disallow="tram rail_urban rail rail_electric rail_fast ship cable_car subway" speed="13.89" length="141.54" shape="22694.14,15168.49 22680.33,15172.55 22672.68,15177.18 22669.79,15181.24 22668.75,15184.20 22659.00,15209.19 22629.28,15285.38"/>
        <lane id="823635969_1" index="1" disallow="tram rail_urban rail rail_electric rail_fast ship cable_car subway" speed="13.89" length="141.54" shape="22693.24,15165.41 22679.03,15169.59 22670.46,15174.78 22666.93,15179.76 22665.75,15183.08 22656.02,15208.03 22626.30,15284.22"/>
        <param key="ref" value="B 96a"/>
    </edge>

    <tlLogic id="cluster_29271704_29271705_6911007220_6911007221_6911007222_6911007223_6911007224_6911007225_6911007226_6911007227_6911007228_6911007229" type="actuated" programID="0" offset="0">
        <phase duration="38" state="rrrGGGgrrrGGGg" minDur="5" maxDur="50"/>
        <phase duration="3"  state="rrryyygrrryyyg"/>
        <phase duration="6"  state="rrrrrrGrrrrrrG" minDur="5" maxDur="50"/>
        <phase duration="3"  state="rrrrrryrrrrrry"/>
        <phase duration="37" state="GGgrrrrGGgrrrr" minDur="5" maxDur="50"/>
        <phase duration="3"  state="yyyrrrryyyrrrr"/>
    </tlLogic>

    <junction id="260495251" type="dead_end" x="22794.31" y="15409.09" incLanes="140498882#2_0" intLanes="" shape="22794.31,15409.09 22795.47,15406.11 22794.31,15409.09"/>
    <junction id="2628405643" type="dead_end" x="22471.18" y="15281.93" incLanes="-257244833#0_0" intLanes="" shape="22471.18,15281.93 22470.00,15284.90 22471.18,15281.93"/>
    <junction id="2688549286" type="priority" x="22557.04" y="15383.23" incLanes="203884042#1_0 203884042#1_1" intLanes=":2688549286_0_0 :2688549286_0_1 :2688549286_0_2" shape="22562.97,15381.28 22554.05,15377.75 22553.33,15380.69 22553.32,15381.78 22553.31,15382.88 22553.14,15384.16 22552.63,15385.83 22558.61,15388.10 22560.05,15385.49 22560.77,15384.68 22561.50,15383.88 22562.23,15382.83">
        <request index="0" response="000" foes="000" cont="0"/>
        <request index="1" response="000" foes="000" cont="0"/>
        <request index="2" response="000" foes="000" cont="0"/>
    </junction>
    <junction id="271400982" type="dead_end" x="22651.96" y="15136.67" incLanes="460217105#1_0 460217105#1_1" intLanes="" shape="22648.80,15136.18 22655.12,15137.16"/>
    <junction id="29271700" type="dead_end" x="22693.69" y="15166.95" incLanes="" intLanes="" shape="22692.79,15163.88 22694.59,15170.02"/>
    <junction id="29271714" type="dead_end" x="22445.10" y="15516.01" incLanes="" intLanes="" shape="22445.10,15516.01"/>
    <junction id="29271715" type="right_before_left" x="22526.95" y="15304.13" incLanes="-257244833#1_0 257244833#0_0" intLanes=":29271715_0_0 :29271715_1_0" shape="22525.77,15307.10 22528.13,15301.16 22525.77,15307.10">
        <request index="0" response="00" foes="00" cont="0"/>
        <request index="1" response="00" foes="00" cont="0"/>
    </junction>
    <junction id="29784667" type="dead_end" x="22567.31" y="15439.82" incLanes="823635968#1_0 823635968#1_1" intLanes="" shape="22570.29,15440.98 22564.33,15438.66"/>
    <junction id="7689833387" type="priority" x="22626.34" y="15288.53" incLanes="823635969_0 823635969_1" intLanes=":7689833387_0_0 :7689833387_0_1 :7689833387_0_2" shape="22630.77,15285.97 22624.81,15283.64 22623.34,15286.27 22621.88,15287.89 22621.15,15288.95 22620.41,15290.51 22629.36,15294.00 22630.05,15291.07 22630.08,15288.89 22630.26,15287.62">
        <request index="0" response="000" foes="000" cont="0"/>
        <request index="1" response="000" foes="000" cont="0"/>
        <request index="2" response="000" foes="000" cont="0"/>
    </junction>
    <junction id="cluster_12614653_1882193216_1882193222_29271706_4377814000_4377814001_4377814002_4377814003_4377814004_4377814005_4377814006_4377814007" type="dead_end" x="22511.73" y="15540.74" incLanes="" intLanes="" shape="22501.70,15536.91 22495.72,15534.62"/>
    <junction id="cluster_29271704_29271705_6911007220_6911007221_6911007222_6911007223_6911007224_6911007225_6911007226_6911007227_6911007228_6911007229" type="traffic_light" x="22593.76" y="15331.27" incLanes="-140498882#2_0 823635967#0_0 823635967#0_1 823635967#0_2 257244833#1_0 460217104#0_0 460217104#0_1 460217104#0_2" intLanes=":cluster_29271704_29271705_6911007220_6911007221_6911007222_6911007223_6911007224_6911007225_6911007226_6911007227_6911007228_6911007229_0_0 :cluster_29271704_29271705_6911007220_6911007221_6911007222_6911007223_6911007224_6911007225_6911007226_6911007227_6911007228_6911007229_1_0 :cluster_29271704_29271705_6911007220_6911007221_6911007222_6911007223_6911007224_6911007225_6911007226_6911007227_6911007228_6911007229_14_0 :cluster_29271704_29271705_6911007220_6911007221_6911007222_6911007223_6911007224_6911007225_6911007226_6911007227_6911007228_6911007229_3_0 :cluster_29271704_29271705_6911007220_6911007221_6911007222_6911007223_6911007224_6911007225_6911007226_6911007227_6911007228_6911007229_4_0 :cluster_29271704_29271705_6911007220_6911007221_6911007222_6911007223_6911007224_6911007225_6911007226_6911007227_6911007228_6911007229_4_1 :cluster_29271704_29271705_6911007220_6911007221_6911007222_6911007223_6911007224_6911007225_6911007226_6911007227_6911007228_6911007229_15_0 :cluster_29271704_29271705_6911007220_6911007221_6911007222_6911007223_6911007224_6911007225_6911007226_6911007227_6911007228_6911007229_7_0 :cluster_29271704_29271705_6911007220_6911007221_6911007222_6911007223_6911007224_6911007225_6911007226_6911007227_6911007228_6911007229_8_0 :cluster_29271704_29271705_6911007220_6911007221_6911007222_6911007223_6911007224_6911007225_6911007226_6911007227_6911007228_6911007229_16_0 :cluster_29271704_29271705_6911007220_6911007221_6911007222_6911007223_6911007224_6911007225_6911007226_6911007227_6911007228_6911007229_10_0 :cluster_29271704_29271705_6911007220_6911007221_6911007222_6911007223_6911007224_6911007225_6911007226_6911007227_6911007228_6911007229_11_0 :cluster_29271704_29271705_6911007220_6911007221_6911007222_6911007223_6911007224_6911007225_6911007226_6911007227_6911007228_6911007229_11_1 :cluster_29271704_29271705_6911007220_6911007221_6911007222_6911007223_6911007224_6911007225_6911007226_6911007227_6911007228_6911007229_17_0" shape="22620.20,15344.56 22622.52,15338.60 22619.80,15337.30 22617.75,15335.78 22616.38,15334.04 22615.67,15332.09 22615.64,15329.92 22616.28,15327.53 22581.54,15313.50 22580.30,15315.73 22578.63,15317.29 22576.54,15318.19 22574.03,15318.42 22571.09,15318.00 22567.73,15316.91 22565.37,15322.85 22568.06,15324.25 22570.01,15326.02 22571.22,15328.15 22571.69,15330.65 22571.42,15333.51 22570.41,15336.74 22605.61,15350.47 22607.11,15347.51 22608.98,15345.34 22611.22,15343.96 22613.84,15343.37 22616.83,15343.57">
        <request index="0"  response="00000000110000" foes="00000000110000" cont="0"/>
        <request index="1"  response="11110001110000" foes="11111001110000" cont="0"/>
        <request index="2"  response="11100101110000" foes="11100101110000" cont="1"/>
        <request index="3"  response="00000000000000" foes="10000100000000" cont="0"/>
        <request index="4"  response="00000000000100" foes="10001100000111" cont="0"/>
        <request index="5"  response="00001000000100" foes="10001100000111" cont="0"/>
        <request index="6"  response="01111000000100" foes="01111100000110" cont="1"/>
        <request index="7"  response="01100000000000" foes="01100000000000" cont="0"/>
        <request index="8"  response="11100001111000" foes="11100001111100" cont="0"/>
        <request index="9"  response="11100001110010" foes="11100001110010" cont="1"/>
        <request index="10" response="00000000000000" foes="00000001000010" cont="0"/>
        <request index="11" response="00001000000000" foes="00001111000110" cont="0"/>
        <request index="12" response="00001000000100" foes="00001111000110" cont="0"/>
        <request index="13" response="00001000111100" foes="00001100111110" cont="1"/>
    </junction>
