<?xml version="1.0" encoding="UTF-8"?>

<!-- generated on 2026-02-11 23:00:45.482443 by Eclipse SUMO cutRoutes.py UNKNOWN
<configuration>
    <routes-output value="e.rou.xml"/>
    <orig-net value="berlin-small.net.xml"/>
    <network value="e.net.xml"/>
    <routeFiles value="berlin-small.rou.xml"/>
</configuration>
-->

<routes xmlns:xsi="http://www.w3.org/2001/XMLSchema-instance" xsi:noNamespaceSchemaLocation="http://sumo.dlr.de/xsd/routes_file.xsd">
    <vType id="DefaultVehicle" length="5.00" minGap="2.00" maxSpeed="50.00" accel="1.50" decel="4.50" sigma="0.50" tau="1.00"/>
    <vehicle id="97" type="DefaultVehicle" depart="413.13" departLane="best" departSpeed="max">
        <route edges="823635969 823635967#0 823635968#1"/>
    </vehicle>
    <vehicle id="230" type="DefaultVehicle" depart="873.75" departLane="best" departSpeed="max">
        <route edges="823635969 823635967#0 140498882#2"/>
    </vehicle>
    <vehicle id="361" type="DefaultVehicle" depart="1107.75" departLane="best" departSpeed="max">
        <route edges="823635969 823635967#0 823635968#1"/>
    </vehicle>
    <vehicle id="576" type="DefaultVehicle" depart="1633.15" departLane="best" departSpeed="max">
        <route edges="203884042#1 460217104#0 460217105#1"/>
    </vehicle>
    <vehicle id="592" type="DefaultVehicle" depart="1667.15" departLane="best" departSpeed="max">
        <route edges="203884042#1 460217104#0 460217105#1"/>
    </vehicle>
    <vehicle id="618" type="DefaultVehicle" depart="1722.21" departLane="best" departSpeed="max">
        <route edges="-140498882#2 460217105#1"/>
    </vehicle>
    <vehicle id="744" type="DefaultVehicle" depart="2328.94" departLane="best" departSpeed="max">
        <route edges="203884042#1 460217104#0 460217105#1"/>
    </vehicle>
    <vehicle id="773" type="DefaultVehicle" depart="2416.97" departLane="best" departSpeed="max">
        <route edges="-140498882#2 460217105#1"/>
    </vehicle>
    <vehicle id="813" type="DefaultVehicle" depart="2807.65" departLane="best" departSpeed="max">
        <route edges="-140498882#2 460217105#1"/>
    </vehicle>
    <vehicle id="860" type="DefaultVehicle" depart="3523.58" departLane="best" departSpeed="max">
        <route edges="823635969 823635967#0 140498882#2"/>
    </vehicle>
    <vehicle id="1299" type="DefaultVehicle" depart="4686.85" departLane="best" departSpeed="max">
        <route edges="203884042#1 460217104#0 460217105#1"/>
    </vehicle>
    <vehicle id="1322" type="DefaultVehicle" depart="4799.22" departLane="best" departSpeed="max">
        <route edges="203884042#1 460217104#0 460217105#1"/>
    </vehicle>
    <vehicle id="1414" type="DefaultVehicle" depart="5099.78" departLane="best" departSpeed="max">
        <route edges="203884042#1 460217104#0 460217105#1"/>
    </vehicle>
    <vehicle id="1542" type="DefaultVehicle" depart="5667.79" departLane="best" departSpeed="max">
        <route edges="823635969 823635967#0 140498882#2"/>
    </vehicle>
    <vehicle id="1572" type="DefaultVehicle" depart="5710.31" departLane="best" departSpeed="max">
        <route edges="823635969 823635967#0 -257244833#1 -257244833#0"/>
    </vehicle>
    <vehicle id="1538" type="DefaultVehicle" depart="5966.98" departLane="best" departSpeed="max">
        <route edges="823635969 823635967#0 823635968#1"/>
    </vehicle>
    <vehicle id="1645" type="DefaultVehicle" depart="6126.40" departLane="best" departSpeed="max">
        <route edges="203884042#1"/>
    </vehicle>
    <vehicle id="1752" type="DefaultVehicle" depart="6454.90" departLane="best" departSpeed="max">
        <route edges="823635969 823635967#0 140498882#2"/>
    </vehicle>
    <vehicle id="1746" type="DefaultVehicle" depart="6538.18" departLane="best" departSpeed="max">
        <route edges="823635969 823635967#0 823635968#1"/>
    </vehicle>
    <vehicle id="1727" type="DefaultVehicle" depart="6652.63" departLane="best" departSpeed="max">
        <route edges="823635969 823635967#0 823635968#1"/>
    </vehicle>
    <vehicle id="2389" type="DefaultVehicle" depart="8263.36" departLane="best" departSpeed="max">
        <route edges="203884042#1 460217104#0 -257244833#1"/>
    </vehicle>
    <vehicle id="2636" type="DefaultVehicle" depart="8611.28" departLane="best" departSpeed="max">
        <route edges="-140498882#2 823635968#1"/>
    </vehicle>
    <vehicle id="2519" type="DefaultVehicle" depart="8681.01" departLane="best" departSpeed="max">
        <route edges="823635969 823635967#0 823635968#1"/>
    </vehicle>
    <vehicle id="2772" type="DefaultVehicle" depart="9195.52" departLane="best" departSpeed="max">
        <route edges="203884042#1 460217104#0 460217105#1"/>
    </vehicle>
    <vehicle id="2947" type="DefaultVehicle" depart="9591.40" departLane="best" departSpeed="max">
        <route edges="-140498882#2 460217105#1"/>
    </vehicle>
    <vehicle id="2953" type="DefaultVehicle" depart="9807.38" departLane="best" departSpeed="max">
        <route edges="823635969 823635967#0 823635968#1"/>
    </vehicle>
    <vehicle id="3281" type="DefaultVehicle" depart="10019.65" departLane="best" departSpeed="max">
        <route edges="257244833#0 257244833#1 460217105#1"/>
    </vehicle>
    <vehicle id="3293" type="DefaultVehicle" depart="10343.36" departLane="best" departSpeed="max">
        <route edges="203884042#1 460217104#0 460217105#1"/>
    </vehicle>
    <vehicle id="3466" type="DefaultVehicle" depart="10574.24" departLane="best" departSpeed="max">
        <route edges="823635969 823635967#0 823635968#1"/>
    </vehicle>
    <vehicle id="3414" type="DefaultVehicle" depart="10586.02" departLane="best" departSpeed="max">
        <route edges="823635969 823635967#0 823635968#1"/>
    </vehicle>
    <vehicle id="3593" type="DefaultVehicle" depart="10840.80" departLane="best" departSpeed="max">
        <route edges="823635969 823635967#0 823635968#1"/>
    </vehicle>
    <vehicle id="3733" type="DefaultVehicle" depart="11061.55" departLane="best" departSpeed="max">
        <route edges="823635969 823635967#0 823635968#1"/>
    </vehicle>
    <vehicle id="3943" type="DefaultVehicle" depart="11346.89" departLane="best" departSpeed="max">
        <route edges="823635969 823635967#0 823635968#1"/>
    </vehicle>
    <vehicle id="3952" type="DefaultVehicle" depart="11366.89" departLane="best" departSpeed="max">
        <route edges="823635969 823635967#0 823635968#1"/>
    </vehicle>
    <vehicle id="3966" type="DefaultVehicle" depart="11429.60" departLane="best" departSpeed="max">
        <route edges="823635969 823635967#0 823635968#1"/>
    </vehicle>
    <vehicle id="4258" type="DefaultVehicle" depart="11495.58" departLane="best" departSpeed="max">
        <route edges="-140498882#2 460217105#1"/>
    </vehicle>
    <vehicle id="4150" type="DefaultVehicle" depart="11627.24" departLane="best" departSpeed="max">
        <route edges="823635969 823635967#0 823635968#1"/>
    </vehicle>
    <vehicle id="4396" type="DefaultVehicle" depart="11693.78" departLane="best" departSpeed="max">
        <route edges="-140498882#2 460217105#1"/>
    </vehicle>
    <vehicle id="4470" type="DefaultVehicle" depart="11829.92" departLane="best" departSpeed="max">
        <route edges="203884042#1 460217104#0 460217105#1"/>
    </vehicle>
    <vehicle id="4563" type="DefaultVehicle" depart="11974.88" departLane="best" departSpeed="max">
        <route edges="-140498882#2 460217105#1"/>
    </vehicle>
    <vehicle id="4681" type="DefaultVehicle" depart="12123.85" departLane="best" departSpeed="max">
        <route edges="-140498882#2 460217105#1"/>
    </vehicle>
    <vehicle id="4889" type="DefaultVehicle" depart="12359.75" departLane="best" departSpeed="max">
        <route edges="-140498882#2 460217105#1"/>
    </vehicle>
    <vehicle id="4976" type="DefaultVehicle" depart="12425.49" departLane="best" departSpeed="max">
        <route edges="-140498882#2 460217105#1"/>
    </vehicle>
    <vehicle id="4926" type="DefaultVehicle" depart="12542.17" departLane="best" departSpeed="max">
        <route edges="823635969 823635967#0 140498882#2"/>
    </vehicle>
    <vehicle id="5219" type="DefaultVehicle" depart="12826.70" departLane="best" departSpeed="max">
        <route edges="823635969 823635967#0 140498882#2"/>
    </vehicle>
    <vehicle id="5338" type="DefaultVehicle" depart="12917.36" departLane="best" departSpeed="max">
        <route edges="823635969 823635967#0 823635968#1"/>
    </vehicle>
    <vehicle id="5576" type="DefaultVehicle" depart="13216.22" departLane="best" departSpeed="max">
        <route edges="823635969 823635967#0 140498882#2"/>
    </vehicle>
    <vehicle id="5812" type="DefaultVehicle" depart="13499.11" departLane="best" departSpeed="max">
        <route edges="823635969 823635967#0 823635968#1"/>
    </vehicle>
    <vehicle id="5860" type="DefaultVehicle" depart="13574.12" departLane="best" departSpeed="max">
        <route edges="823635969 823635967#0 823635968#1"/>
    </vehicle>
    <vehicle id="6124" type="DefaultVehicle" depart="13709.56" departLane="best" departSpeed="max">
        <route edges="823635969 823635967#0 823635968#1"/>
    </vehicle>
    <vehicle id="6342" type="DefaultVehicle" depart="13947.42" departLane="best" departSpeed="max">
        <route edges="823635969 823635967#0 823635968#1"/>
    </vehicle>
    <vehicle id="7445" type="DefaultVehicle" depart="14944.51" departLane="best" departSpeed="max">
        <route edges="823635969 823635967#0 140498882#2"/>
    </vehicle>
    <vehicle id="7776" type="DefaultVehicle" depart="14995.00">
        <route edges="-140498882#2 823635968#1"/>
    </vehicle>
    <vehicle id="8145" type="DefaultVehicle" depart="15382.44" departLane="best" departSpeed="max">
        <route edges="823635969 823635967#0 823635968#1"/>
    </vehicle>
    <vehicle id="8512" type="DefaultVehicle" depart="15548.54" departLane="best" departSpeed="max">
        <route edges="823635969 823635967#0 140498882#2"/>
    </vehicle>
    <vehicle id="8616" type="DefaultVehicle" depart="15614.47" departLane="best" departSpeed="max">
        <route edges="203884042#1 460217104#0 460217105#1"/>
    </vehicle>
    <vehicle id="8763" type="DefaultVehicle" depart="15622.00">
        <route edges="203884042#1 460217104#0 140498882#2"/>
    </vehicle>
    <vehicle id="8929" type="DefaultVehicle" depart="15709.39" departLane="best" departSpeed="max">
        <route edges="-140498882#2 460217105#1"/>
    </vehicle>
    <vehicle id="8648" type="DefaultVehicle" depart="15725.54" departLane="best" departSpeed="max">
        <route edges="823635969 823635967#0 140498882#2"/>
    </vehicle>
    <vehicle id="8844" type="DefaultVehicle" depart="15757.32" departLane="best" departSpeed="max">
        <route edges="823635969 823635967#0 823635968#1"/>
    </vehicle>
    <vehicle id="9011" type="DefaultVehicle" depart="15797.67" departLane="best" departSpeed="max">
        <route edges="203884042#1 460217104#0 460217105#1"/>
    </vehicle>
    <vehicle id="9146" type="DefaultVehicle" depart="15823.00">
        <route edges="203884042#1 460217104#0 460217105#1"/>
    </vehicle>
    <vehicle id="9063" type="DefaultVehicle" depart="15846.56" departLane="best" departSpeed="max">
        <route edges="823635969 823635967#0 140498882#2"/>
    </vehicle>
    <vehicle id="9002" type="DefaultVehicle" depart="15920.64" departLane="best" departSpeed="max">
        <route edges="823635969 823635967#0 823635968#1"/>
    </vehicle>
    <vehicle id="9321" type="DefaultVehicle" depart="15955.60" departLane="best" departSpeed="max">
        <route edges="-140498882#2 460217105#1"/>
    </vehicle>
    <vehicle id="9569" type="DefaultVehicle" depart="16113.21" departLane="best" departSpeed="max">
        <route edges="-140498882#2"/>
    </vehicle>
    <vehicle id="9669" type="DefaultVehicle" depart="16146.56" departLane="best" departSpeed="max">
        <route edges="203884042#1 460217104#0 460217105#1"/>
    </vehicle>
    <vehicle id="9522" type="DefaultVehicle" depart="16220.69" departLane="best" departSpeed="max">
        <route edges="823635969 823635967#0 823635968#1"/>
    </vehicle>
    <vehicle id="9920" type="DefaultVehicle" depart="16226.00">
        <route edges="257244833#0 257244833#1 823635968#1"/>
    </vehicle>
    <vehicle id="9561" type="DefaultVehicle" depart="16350.32" departLane="best" departSpeed="max">
        <route edges="203884042#1 460217104#0 460217105#1"/>
    </vehicle>
    <vehicle id="10049" type="DefaultVehicle" depart="16367.01" departLane="best" departSpeed="max">
        <route edges="-140498882#2 -257244833#1 -257244833#0"/>
    </vehicle>
    <vehicle id="10205" type="DefaultVehicle" depart="16419.30" departLane="best" departSpeed="max">
        <route edges="-140498882#2 460217105#1"/>
    </vehicle>
    <vehicle id="9494" type="DefaultVehicle" depart="16426.14" departLane="best" departSpeed="max">
        <route edges="823635969 823635967#0 823635968#1"/>
    </vehicle>
    <vehicle id="10198" type="DefaultVehicle" depart="16468.51" departLane="best" departSpeed="max">
        <route edges="823635969 823635967#0 823635968#1"/>
    </vehicle>
    <vehicle id="10340" type="DefaultVehicle" depart="16528.07" departLane="best" departSpeed="max">
        <route edges="203884042#1 460217104#0 460217105#1"/>
    </vehicle>
    <vehicle id="9770" type="DefaultVehicle" depart="16577.00" departLane="best" departSpeed="max">
        <route edges="823635969 823635967#0 823635968#1"/>
    </vehicle>
    <vehicle id="9892" type="DefaultVehicle" depart="16610.36" departLane="best" departSpeed="max">
        <route edges="823635969 823635967#0 140498882#2"/>
    </vehicle>
    <vehicle id="11139" type="DefaultVehicle" depart="16882.44" departLane="best" departSpeed="max">
        <route edges="203884042#1 460217104#0 460217105#1"/>
    </vehicle>
    <vehicle id="11009" type="DefaultVehicle" depart="16908.15" departLane="best" departSpeed="max">
        <route edges="-140498882#2 460217105#1"/>
    </vehicle>
    <vehicle id="11301" type="DefaultVehicle" depart="16968.85" departLane="best" departSpeed="max">
        <route edges="203884042#1 460217104#0 460217105#1"/>
    </vehicle>
    <vehicle id="8351" type="DefaultVehicle" depart="17113.64" departLane="best" departSpeed="max">
        <route edges="823635969 823635967#0 140498882#2"/>
    </vehicle>
    <vehicle id="11629" type="DefaultVehicle" depart="17122.40" departLane="best" departSpeed="max">
        <route edges="-140498882#2 460217105#1"/>
    </vehicle>
    <vehicle id="11199" type="DefaultVehicle" depart="17259.14" departLane="best" departSpeed="max">
        <route edges="823635969 823635967#0 823635968#1"/>
    </vehicle>
    <vehicle id="12003" type="DefaultVehicle" depart="17517.64" departLane="best" departSpeed="max">
        <route edges="-140498882#2 460217105#1"/>
    </vehicle>
    <vehicle id="13083" type="DefaultVehicle" depart="17611.29" departLane="best" departSpeed="max">
        <route edges="-140498882#2 460217105#1"/>
    </vehicle>
    <vehicle id="13233" type="DefaultVehicle" depart="17690.25" departLane="best" departSpeed="max">
        <route edges="-140498882#2 460217105#1"/>
    </vehicle>
    <vehicle id="12586" type="DefaultVehicle" depart="17707.17" departLane="best" departSpeed="max">
        <route edges="-140498882#2 460217105#1"/>
    </vehicle>
    <vehicle id="12594" type="DefaultVehicle" depart="17723.12" departLane="best" departSpeed="max">
        <route edges="-140498882#2 460217105#1"/>
    </vehicle>
    <vehicle id="13516" type="DefaultVehicle" depart="17727.00">
        <route edges="823635968#1"/>
    </vehicle>
    <vehicle id="13508" type="DefaultVehicle" depart="17728.33" departLane="best" departSpeed="max">
        <route edges="203884042#1 460217104#0 460217105#1"/>
    </vehicle>
    <vehicle id="14123" type="DefaultVehicle" depart="17943.58" departLane="best" departSpeed="max">
        <route edges="-140498882#2 460217105#1"/>
    </vehicle>
    <vehicle id="12947" type="DefaultVehicle" depart="17993.67" departLane="best" departSpeed="max">
        <route edges="203884042#1 460217104#0 460217105#1"/>
    </vehicle>
    <vehicle id="13404" type="DefaultVehicle" depart="18028.98" departLane="best" departSpeed="max">
        <route edges="203884042#1 460217104#0 460217105#1"/>
    </vehicle>
    <vehicle id="14526" type="DefaultVehicle" depart="18037.85" departLane="best" departSpeed="max">
        <route edges="203884042#1 460217104#0 460217105#1"/>
    </vehicle>
    <vehicle id="14011" type="DefaultVehicle" depart="18190.39" departLane="best" departSpeed="max">
        <route edges="203884042#1 460217104#0 460217105#1"/>
    </vehicle>
    <vehicle id="15800" type="DefaultVehicle" depart="18376.29" departLane="best" departSpeed="max">
        <route edges="-140498882#2 460217105#1"/>
    </vehicle>
    <vehicle id="15795" type="DefaultVehicle" depart="18394.66" departLane="best" departSpeed="max">
        <route edges="-140498882#2 460217105#1"/>
    </vehicle>
    <vehicle id="15522" type="DefaultVehicle" depart="18415.46" departLane="best" departSpeed="max">
        <route edges="823635969 823635967#0 823635968#1"/>
    </vehicle>
    <vehicle id="16233" type="DefaultVehicle" depart="18463.33" departLane="best" departSpeed="max">
        <route edges="203884042#1 460217104#0 460217105#1"/>
    </vehicle>
    <vehicle id="13675" type="DefaultVehicle" depart="18647.90" departLane="best" departSpeed="max">
        <route edges="203884042#1 460217104#0 460217105#1"/>
    </vehicle>
    <vehicle id="15852" type="DefaultVehicle" depart="18650.21" departLane="best" departSpeed="max">
        <route edges="203884042#1 460217104#0 460217105#1"/>
    </vehicle>
    <vehicle id="16252" type="DefaultVehicle" depart="18660.25" departLane="best" departSpeed="max">
        <route edges="823635969 823635967#0 823635968#1"/>
    </vehicle>
    <vehicle id="13573" type="DefaultVehicle" depart="18666.29" departLane="best" departSpeed="max">
        <route edges="203884042#1 460217104#0 460217105#1"/>
    </vehicle>
    <vehicle id="16342" type="DefaultVehicle" depart="18707.43" departLane="best" departSpeed="max">
        <route edges="823635969 823635967#0 140498882#2"/>
    </vehicle>
    <vehicle id="16034" type="DefaultVehicle" depart="18719.86" departLane="best" departSpeed="max">
        <route edges="203884042#1 460217104#0 460217105#1"/>
    </vehicle>
    <vehicle id="13646" type="DefaultVehicle" depart="18738.62" departLane="best" departSpeed="max">
        <route edges="203884042#1 460217104#0 460217105#1"/>
    </vehicle>
    <vehicle id="17558" type="DefaultVehicle" depart="18871.90" departLane="best" departSpeed="max">
        <route edges="823635969 823635967#0 823635968#1"/>
    </vehicle>
    <vehicle id="14026" type="DefaultVehicle" depart="18907.89" departLane="best" departSpeed="max">
        <route edges="203884042#1 460217104#0 460217105#1"/>
    </vehicle>
    <vehicle id="16894" type="DefaultVehicle" depart="18961.47" departLane="best" departSpeed="max">
        <route edges="823635969 823635967#0 823635968#1"/>
    </vehicle>
    <vehicle id="17810" type="DefaultVehicle" depart="18964.07" departLane="best" departSpeed="max">
        <route edges="823635969 823635967#0 140498882#2"/>
    </vehicle>
    <vehicle id="14101" type="DefaultVehicle" depart="18973.64" departLane="best" departSpeed="max">
        <route edges="203884042#1 460217104#0 460217105#1"/>
    </vehicle>
    <vehicle id="15797" type="DefaultVehicle" depart="19000.72" departLane="best" departSpeed="max">
        <route edges="-140498882#2 460217105#1"/>
    </vehicle>
    <vehicle id="17698" type="DefaultVehicle" depart="19005.23" departLane="best" departSpeed="max">
        <route edges="823635969 823635967#0 823635968#1"/>
    </vehicle>
    <vehicle id="17764" type="DefaultVehicle" depart="19038.14" departLane="best" departSpeed="max">
        <route edges="823635969 823635967#0 823635968#1"/>
    </vehicle>
    <vehicle id="14264" type="DefaultVehicle" depart="19179.36" departLane="best" departSpeed="max">
        <route edges="203884042#1 460217104#0 460217105#1"/>
    </vehicle>
    <vehicle id="14714" type="DefaultVehicle" depart="19181.28" departLane="best" departSpeed="max">
        <route edges="823635969 823635967#0 823635968#1"/>
    </vehicle>
    <vehicle id="15417" type="DefaultVehicle" depart="19182.53" departLane="best" departSpeed="max">
        <route edges="203884042#1 460217104#0 460217105#1"/>
    </vehicle>
    <vehicle id="18494" type="DefaultVehicle" depart="19193.97" departLane="best" departSpeed="max">
        <route edges="203884042#1 460217104#0 460217105#1"/>
    </vehicle>
    <vehicle id="19415" type="DefaultVehicle" depart="19262.02" departLane="best" departSpeed="max">
        <route edges="203884042#1 460217104#0 460217105#1"/>
    </vehicle>
    <vehicle id="19666" type="DefaultVehicle" depart="19293.26" departLane="best" departSpeed="max">
        <route edges="203884042#1 460217104#0 460217105#1"/>
    </vehicle>
    <vehicle id="20411" type="DefaultVehicle" depart="19322.79" departLane="best" departSpeed="max">
        <route edges="-140498882#2 460217105#1"/>
    </vehicle>
    <vehicle id="15503" type="DefaultVehicle" depart="19330.22" departLane="best" departSpeed="max">
        <route edges="823635969 823635967#0 823635968#1"/>
    </vehicle>
    <vehicle id="19758" type="DefaultVehicle" depart="19369.80" departLane="best" departSpeed="max">
        <route edges="203884042#1 460217104#0 460217105#1"/>
    </vehicle>
    <vehicle id="18633" type="DefaultVehicle" depart="19372.81" departLane="best" departSpeed="max">
        <route edges="203884042#1 460217104#0 460217105#1"/>
    </vehicle>
    <vehicle id="18765" type="DefaultVehicle" depart="19388.27" departLane="best" departSpeed="max">
        <route edges="823635969 823635967#0 823635968#1"/>
    </vehicle>
    <vehicle id="16921" type="DefaultVehicle" depart="19401.17" departLane="best" departSpeed="max">
        <route edges="823635969 823635967#0 -257244833#1 -257244833#0"/>
    </vehicle>
    <vehicle id="20814" type="DefaultVehicle" depart="19470.65" departLane="best" departSpeed="max">
        <route edges="823635969 823635967#0 823635968#1"/>
    </vehicle>
    <vehicle id="19550" type="DefaultVehicle" depart="19480.98" departLane="best" departSpeed="max">
        <route edges="823635969 823635967#0 823635968#1"/>
    </vehicle>
    <vehicle id="20812" type="DefaultVehicle" depart="19485.90" departLane="best" departSpeed="max">
        <route edges="203884042#1 460217104#0 460217105#1"/>
    </vehicle>
    <vehicle id="20810" type="DefaultVehicle" depart="19503.54" departLane="best" departSpeed="max">
        <route edges="823635969 823635967#0 823635968#1"/>
    </vehicle>
    <vehicle id="20717" type="DefaultVehicle" depart="19526.47" departLane="best" departSpeed="max">
        <route edges="203884042#1 460217104#0 460217105#1"/>
    </vehicle>
    <vehicle id="22034" type="DefaultVehicle" depart="19527.44" departLane="best" departSpeed="max">
        <route edges="203884042#1 460217104#0 460217105#1"/>
    </vehicle>
    <vehicle id="21228" type="DefaultVehicle" depart="19544.20" departLane="best" departSpeed="max">
        <route edges="203884042#1 460217104#0 460217105#1"/>
    </vehicle>
    <vehicle id="21000" type="DefaultVehicle" depart="19566.02" departLane="best" departSpeed="max">
        <route edges="203884042#1 460217104#0 460217105#1"/>
    </vehicle>
    <vehicle id="21525" type="DefaultVehicle" depart="19577.53" departLane="best" departSpeed="max">
        <route edges="203884042#1 460217104#0 460217105#1"/>
    </vehicle>
    <vehicle id="20214" type="DefaultVehicle" depart="19583.34" departLane="best" departSpeed="max">
        <route edges="823635969 823635967#0 823635968#1"/>
    </vehicle>
    <vehicle id="21903" type="DefaultVehicle" depart="19590.22" departLane="best" departSpeed="max">
        <route edges="203884042#1 460217104#0 460217105#1"/>
    </vehicle>
    <vehicle id="22230" type="DefaultVehicle" depart="19597.38" departLane="best" departSpeed="max">
        <route edges="203884042#1 460217104#0 460217105#1"/>
    </vehicle>
    <vehicle id="19408" type="DefaultVehicle" depart="19608.27" departLane="best" departSpeed="max">
        <route edges="823635969 823635967#0 823635968#1"/>
    </vehicle>
    <vehicle id="19619" type="DefaultVehicle" depart="19612.09" departLane="best" departSpeed="max">
        <route edges="823635969 823635967#0 823635968#1"/>
    </vehicle>
    <vehicle id="16326" type="DefaultVehicle" depart="19619.80" departLane="best" departSpeed="max">
        <route edges="823635969 823635967#0 823635968#1"/>
    </vehicle>
    <vehicle id="22542" type="DefaultVehicle" depart="19631.06" departLane="best" departSpeed="max">
        <route edges="823635969 823635967#0 823635968#1"/>
    </vehicle>
    <vehicle id="21846" type="DefaultVehicle" depart="19650.89" departLane="best" departSpeed="max">
        <route edges="203884042#1 460217104#0 460217105#1"/>
    </vehicle>
    <vehicle id="21615" type="DefaultVehicle" depart="19651.76" departLane="best" departSpeed="max">
        <route edges="203884042#1 460217104#0 460217105#1"/>
    </vehicle>
    <vehicle id="22020" type="DefaultVehicle" depart="19651.90" departLane="best" departSpeed="max">
        <route edges="203884042#1 460217104#0 460217105#1"/>
    </vehicle>
    <vehicle id="22097" type="DefaultVehicle" depart="19673.44" departLane="best" departSpeed="max">
        <route edges="203884042#1 460217104#0 460217105#1"/>
    </vehicle>
    <vehicle id="23038" type="DefaultVehicle" depart="19714.89" departLane="best" departSpeed="max">
        <route edges="203884042#1 460217104#0 460217105#1"/>
    </vehicle>
    <vehicle id="20421" type="DefaultVehicle" depart="19723.24" departLane="best" departSpeed="max">
        <route edges="823635969 823635967#0 823635968#1"/>
    </vehicle>
    <vehicle id="23177" type="DefaultVehicle" depart="19732.74" departLane="best" departSpeed="max">
        <route edges="203884042#1 460217104#0 460217105#1"/>
    </vehicle>
    <vehicle id="16853" type="DefaultVehicle" depart="19738.16" departLane="best" departSpeed="max">
        <route edges="203884042#1 460217104#0 460217105#1"/>
    </vehicle>
    <vehicle id="20116" type="DefaultVehicle" depart="19740.37" departLane="best" departSpeed="max">
        <route edges="823635969 823635967#0 823635968#1"/>
    </vehicle>
    <vehicle id="20797" type="DefaultVehicle" depart="19751.80" departLane="best" departSpeed="max">
        <route edges="-140498882#2 460217105#1"/>
    </vehicle>
    <vehicle id="22847" type="DefaultVehicle" depart="19751.90" departLane="best" departSpeed="max">
        <route edges="203884042#1 460217104#0 460217105#1"/>
    </vehicle>
    <vehicle id="18922" type="DefaultVehicle" depart="19756.08" departLane="best" departSpeed="max">
        <route edges="203884042#1 460217104#0 460217105#1"/>
    </vehicle>
    <vehicle id="24229" type="DefaultVehicle" depart="19769.27" departLane="best" departSpeed="max">
        <route edges="203884042#1 460217104#0 140498882#2"/>
    </vehicle>
    <vehicle id="22963" type="DefaultVehicle" depart="19778.51" departLane="best" departSpeed="max">
        <route edges="823635969 823635967#0 823635968#1"/>
    </vehicle>
    <vehicle id="22202" type="DefaultVehicle" depart="19779.56" departLane="best" departSpeed="max">
        <route edges="203884042#1 460217104#0 460217105#1"/>
    </vehicle>
    <vehicle id="23755" type="DefaultVehicle" depart="19786.52" departLane="best" departSpeed="max">
        <route edges="-140498882#2 460217105#1"/>
    </vehicle>
    <vehicle id="21316" type="DefaultVehicle" depart="19817.54" departLane="best" departSpeed="max">
        <route edges="203884042#1 460217104#0 460217105#1"/>
    </vehicle>
    <vehicle id="24640" type="DefaultVehicle" depart="19827.44" departLane="best" departSpeed="max">
        <route edges="203884042#1 460217104#0 460217105#1"/>
    </vehicle>
    <vehicle id="23571" type="DefaultVehicle" depart="19831.59" departLane="best" departSpeed="max">
        <route edges="203884042#1 460217104#0 460217105#1"/>
    </vehicle>
    <vehicle id="21633" type="DefaultVehicle" depart="19832.64" departLane="best" departSpeed="max">
        <route edges="823635969 823635967#0 823635968#1"/>
    </vehicle>
    <vehicle id="23380" type="DefaultVehicle" depart="19850.55" departLane="best" departSpeed="max">
        <route edges="203884042#1 460217104#0 460217105#1"/>
    </vehicle>
    <vehicle id="17623" type="DefaultVehicle" depart="19871.15" departLane="best" departSpeed="max">
        <route edges="823635969 823635967#0 823635968#1"/>
    </vehicle>
    <vehicle id="24031" type="DefaultVehicle" depart="19883.34" departLane="best" departSpeed="max">
        <route edges="203884042#1 460217104#0 460217105#1"/>
    </vehicle>
    <vehicle id="24076" type="DefaultVehicle" depart="19902.89" departLane="best" departSpeed="max">
        <route edges="203884042#1 460217104#0 460217105#1"/>
    </vehicle>
    <vehicle id="20884" type="DefaultVehicle" depart="19912.37" departLane="best" departSpeed="max">
        <route edges="823635969 823635967#0 823635968#1"/>
    </vehicle>
    <vehicle id="25129" type="DefaultVehicle" depart="19927.73" departLane="best" departSpeed="max">
        <route edges="203884042#1 460217104#0 460217105#1"/>
    </vehicle>
    <vehicle id="15810" type="DefaultVehicle" depart="19946.86" departLane="best" departSpeed="max">
        <route edges="823635969 823635967#0 823635968#1"/>
    </vehicle>
    <vehicle id="22116" type="DefaultVehicle" depart="19970.04" departLane="best" departSpeed="max">
        <route edges="823635969 823635967#0 823635968#1"/>
    </vehicle>
    <vehicle id="15815" type="DefaultVehicle" depart="19971.52" departLane="best" departSpeed="max">