<?xml version="1.0" encoding="UTF-8"?>
<!-- Auto-generated Traffic Pattern Library -->
<!-- Total Duration: 7200s (2.0 hours) -->
<!-- Network: berlin-small-static.net.xml -->
<routes>
    <vType id="passenger" accel="0.8" decel="4.5" length="5.0" minGap="2.5" maxSpeed="13.89" vClass="passenger" speedFactor="1.0" speedDev="0.1" jmIgnoreJunctionFoeProb="1.0" jmIgnoreKeepClearTime="-1" />

    <route id="route_0" edges="-114684413#1 4685636#1" />
    <route id="route_1" edges="-114684413#1 -44851670#2" />
    <route id="route_2" edges="-114684413#1 440078644#1" />
    <route id="route_3" edges="-114684413#2 -114684413#1" />
    <route id="route_4" edges="-114684413#2 4789057" />
    <route id="route_5" edges="-129118314 154262444#2" />
    <route id="route_6" edges="-129118314 -154262444#1" />
    <route id="route_7" edges="-140498882#2 823635968#1" />
    <route id="route_8" edges="-140498882#2 -257244833#1" />
    <route id="route_9" edges="-140498882#2 460217105#1" />
    <route id="route_10" edges="-140498883#0 -69873799#2" />
    <route id="route_11" edges="-151974158#0 -485472400" />
    <route id="route_12" edges="-151974158#0 -28222110#2" />
    <route id="route_13" edges="-151974158#1 -151974158#0" />
    <route id="route_14" edges="-151974158#1 -4789062#2" />
    <route id="route_15" edges="-154262442#0 154262443" />
    <route id="route_16" edges="-154262442#0 -8428399" />
    <route id="route_17" edges="-154262442#0 -154262444#2" />
    <route id="route_18" edges="-154262443 -8428399" />
    <route id="route_19" edges="-154262443 -154262444#2" />
    <route id="route_20" edges="-154262443 154262442#0" />
    <route id="route_21" edges="-154262444#1 -154262444#0" />
    <route id="route_22" edges="-154262444#1 -28189973" />
    <route id="route_23" edges="-154262444#2 -154262444#1" />
    <route id="route_24" edges="-154262444#2 129118314" />
    <route id="route_25" edges="-155190261#4 -8084127" />
    <route id="route_26" edges="-257244833#0 -26138864#2" />
    <route id="route_27" edges="-257244833#0 126348151" />
    <route id="route_28" edges="-257244833#1 4615786" />
    <route id="route_29" edges="-257244833#1 -257244833#0" />
    <route id="route_30" edges="-25950000#2 28197508#0" />
    <route id="route_31" edges="-25950000#2 -661400763#2" />
    <route id="route_32" edges="-25950000#2 69873799#0" />
    <route id="route_33" edges="-26138864#2 746885629" />
    <route id="route_34" edges="-28197508#2 -661400763#2" />
    <route id="route_35" edges="-28197508#2 69873799#0" />
    <route id="route_36" edges="-28197508#2 25950000#0" />
    <route id="route_37" edges="-28222110#2 -8084132#1" />
    <route id="route_38" edges="-28222110#2 -114684413#2" />
    <route id="route_39" edges="-28222110#2 8084132#6" />
    <route id="route_40" edges="-28536387 28536387" />
    <route id="route_41" edges="-44851670#0 -4615745#2" />
    <route id="route_42" edges="-44851670#1 -44851670#0" />
    <route id="route_43" edges="-44851670#1 4615784" />
    <route id="route_44" edges="-44851670#2 -44851670#1" />
    <route id="route_45" edges="-4615745#2 -625928996#0" />
    <route id="route_46" edges="-4615745#2 -4616192#1" />
    <route id="route_47" edges="-4615745#2 4615783#2" />
    <route id="route_48" edges="-4615783#2 4615745#2" />
    <route id="route_49" edges="-4615783#2 -625928996#0" />
    <route id="route_50" edges="-4615783#2 -4616192#1" />
    <route id="route_51" edges="-4615783#3 -4615784" />
    <route id="route_52" edges="-4615783#3 -4615783#2" />
    <route id="route_53" edges="-4615783#4 4615785" />
    <route id="route_54" edges="-4615783#4 -4615783#3" />
    <route id="route_55" edges="-4615783#5 -4615783#4" />
    <route id="route_56" edges="-4615784 44851670#1" />
    <route id="route_57" edges="-4615784 -44851670#0" />
    <route id="route_58" edges="-4789051#2 440078643#1" />
    <route id="route_59" edges="-4789051#2 -4615783#5" />
    <route id="route_60" edges="-4789051#2 203884042#1" />
    <route id="route_61" edges="-4789055 823635968#2" />
    <route id="route_62" edges="-4789057 114684413#2" />
    <route id="route_63" edges="-4789057 -114684413#1" />
    <route id="route_64" edges="-4789062#2 -8084132#7" />
    <route id="route_65" edges="-4789062#2 -4789051#2" />
    <route id="route_66" edges="-4789062#2 8084132#12" />
    <route id="route_67" edges="-485472400 8428399" />
    <route id="route_68" edges="-485472400 8084129" />
    <route id="route_69" edges="-661400763#2 -8084132#13" />
    <route id="route_70" edges="-661400763#2 40644892" />
    <route id="route_71" edges="-69873799#2 25950000#0" />
    <route id="route_72" edges="-69873799#2 28197508#0" />
    <route id="route_73" edges="-69873799#2 -661400763#2" />
    <route id="route_74" edges="-746885631 26138864#2" />
    <route id="route_75" edges="-8084127 4782467#1" />
    <route id="route_76" edges="-8084129 485472400" />
    <route id="route_77" edges="-8084129 8428399" />
    <route id="route_78" edges="-8084132#0 53365275#1" />
    <route id="route_79" edges="-8084132#0 -155190261#4" />
    <route id="route_80" edges="-8084132#1 -8084132#0" />
    <route id="route_81" edges="-8084132#1 -28536387" />
    <route id="route_82" edges="-8084132#12 4789062#2" />
    <route id="route_83" edges="-8084132#12 -8084132#7" />
    <route id="route_84" edges="-8084132#12 -4789051#2" />
    <route id="route_85" edges="-8084132#13 -8084132#12" />
    <route id="route_86" edges="-8084132#13 -4789055" />
    <route id="route_87" edges="-8084132#6 28222110#2" />
    <route id="route_88" edges="-8084132#6 -8084132#1" />
    <route id="route_89" edges="-8084132#6 -114684413#2" />
    <route id="route_90" edges="-8084132#7 -8084132#6" />
    <route id="route_91" edges="-8428399 8084129" />
    <route id="route_92" edges="-8428399 485472400" />
    <route id="route_93" edges="114684413#1 4789057" />
    <route id="route_94" edges="114684413#1 114684413#2" />
    <route id="route_95" edges="114684413#2 8084132#6" />
    <route id="route_96" edges="114684413#2 28222110#2" />
    <route id="route_97" edges="114684413#2 -8084132#1" />
    <route id="route_98" edges="140498882#2 30422501" />
    <route id="route_99" edges="151974158#0 -4789062#2" />
    <route id="route_100" edges="151974158#0 151974158#1" />
    <route id="route_101" edges="151974158#1 -28197508#2" />
    <route id="route_102" edges="154262443 -154262443" />
    <route id="route_103" edges="154262444#0 -28189973" />
    <route id="route_104" edges="154262444#0 154262444#1" />
    <route id="route_105" edges="154262444#1 129118314" />
    <route id="route_106" edges="154262444#1 154262444#2" />
    <route id="route_107" edges="154262444#2 154262442#0" />
    <route id="route_108" edges="154262444#2 154262443" />
    <route id="route_109" edges="154262444#2 -8428399" />
    <route id="route_110" edges="155190261#4 53365281#1" />
    <route id="route_111" edges="155190261#4 8084132#0" />
    <route id="route_112" edges="155190261#4 53365275#1" />
    <route id="route_113" edges="203884042#1 460217104#0" />
    <route id="route_114" edges="203884042#1 460217104#0" />
    <route id="route_115" edges="203884042#1 460217104#0" />
    <route id="route_116" edges="257244833#0 257244833#1" />
    <route id="route_117" edges="257244833#0 4615786" />
    <route id="route_118" edges="257244833#1 460217105#1" />
    <route id="route_119" edges="257244833#1 140498882#2" />
    <route id="route_120" edges="257244833#1 823635968#1" />
    <route id="route_121" edges="26138864#2 126348151" />
    <route id="route_122" edges="26138864#2 257244833#0" />
    <route id="route_123" edges="28189973 154262444#1" />
    <route id="route_124" edges="28189973 -154262444#0" />
    <route id="route_125" edges="28197508#0 -151974158#1" />
    <route id="route_126" edges="28222110#2 151974158#0" />
    <route id="route_127" edges="28222110#2 -485472400" />
    <route id="route_128" edges="28299346#1 288762497#0" />
    <route id="route_129" edges="28299346#1 288762497#0" />
    <route id="route_130" edges="28299346#1 288762497#0" />
    <route id="route_131" edges="28299346#1 288762497#0" />
    <route id="route_132" edges="28536387 8084132#1" />
    <route id="route_133" edges="28536387 -8084132#0" />
    <route id="route_134" edges="288762496#0 656241856#1" />
    <route id="route_135" edges="288762496#0 4615457#1" />
    <route id="route_136" edges="288762496#0 4615457#1" />
    <route id="route_137" edges="288762496#0 4615780#1" />
    <route id="route_138" edges="288762497#0 -155190261#4" />
    <route id="route_139" edges="288762497#0 53365281#1" />
    <route id="route_140" edges="288762497#0 53365281#1" />
    <route id="route_141" edges="288762497#0 53365281#1" />
    <route id="route_142" edges="288762497#0 8084132#0" />
    <route id="route_143" edges="30422501 140149258" />
    <route id="route_144" edges="30422501 -69873799#2" />
    <route id="route_145" edges="338616239 114684413#1" />
    <route id="route_146" edges="338616239 4685636#1" />
    <route id="route_147" edges="338616239 4685636#1" />
    <route id="route_148" edges="338616239 -44851670#2" />
    <route id="route_149" edges="338616240 458998067#0" />
    <route id="route_150" edges="338616240 458998067#0" />
    <route id="route_151" edges="338616240 458998067#0" />
    <route id="route_152" edges="338616240 458998067#0" />
    <route id="route_153" edges="341080389 341080390" />
    <route id="route_154" edges="341080389 341080390" />
    <route id="route_155" edges="341080389 341080390" />
    <route id="route_156" edges="341080389 341080390" />
    <route id="route_157" edges="341080390 4615780#1" />
    <route id="route_158" edges="341080390 4685638#1" />
    <route id="route_159" edges="341080390 4685638#1" />
    <route id="route_160" edges="341080390 4685638#1" />
    <route id="route_161" edges="341080390 656241856#1" />
    <route id="route_162" edges="38575179#0 4615457#1" />
    <route id="route_163" edges="38575179#0 4615780#1" />
    <route id="route_164" edges="38575179#0 4615780#1" />
    <route id="route_165" edges="38575179#0 4685638#1" />
    <route id="route_166" edges="40644892 -140498882#2" />
    <route id="route_167" edges="40644892 30422501" />
    <route id="route_168" edges="440078643#1 4789056#0" />
    <route id="route_169" edges="440078643#1 338616239" />
    <route id="route_170" edges="440078643#1 338616239" />
    <route id="route_171" edges="440078644#1 440078647#0" />
    <route id="route_172" edges="440078644#1 440078647#0" />
    <route id="route_173" edges="440078644#1 440078647#0" />
    <route id="route_174" edges="440078647#0 -4615783#5" />
    <route id="route_175" edges="440078647#0 203884042#1" />
    <route id="route_176" edges="440078647#0 203884042#1" />
    <route id="route_177" edges="440078647#0 4789051#2" />
    <route id="route_178" edges="440078648#0 4789051#2" />
    <route id="route_179" edges="440078648#0 440078643#1" />
    <route id="route_180" edges="440078648#0 440078643#1" />
    <route id="route_181" edges="440078648#0 -4615783#5" />
    <route id="route_182" edges="44851670#0 4615784" />
    <route id="route_183" edges="44851670#0 44851670#1" />
    <route id="route_184" edges="44851670#1 44851670#2" />
    <route id="route_185" edges="44851670#2 440078644#1" />
    <route id="route_186" edges="44851670#2 114684413#1" />
    <route id="route_187" edges="44851670#2 4685636#1" />
    <route id="route_188" edges="458998067#0 4685638#1" />
    <route id="route_189" edges="458998067#0 656241856#1" />
    <route id="route_190" edges="458998067#0 656241856#1" />
    <route id="route_191" edges="458998067#0 656241856#1" />
    <route id="route_192" edges="458998067#0 4615457#1" />
    <route id="route_193" edges="460217099 38575179#0" />
    <route id="route_194" edges="460217099 38575179#0" />
    <route id="route_195" edges="460217099 38575179#0" />
    <route id="route_196" edges="460217099 38575179#0" />
    <route id="route_197" edges="460217104#0 -257244833#1" />
    <route id="route_198" edges="460217104#0 460217105#1" />
    <route id="route_199" edges="460217104#0 460217105#1" />
    <route id="route_200" edges="460217104#0 140498882#2" />
    <route id="route_201" edges="4615742#1 -4616192#1" />
    <route id="route_202" edges="4615742#1 4615783#2" />
    <route id="route_203" edges="4615742#1 4615745#2" />
    <route id="route_204" edges="4615745#2 44851670#0" />
    <route id="route_205" edges="4615780#1 -44851670#2" />
    <route id="route_206" edges="4615780#1 440078644#1" />
    <route id="route_207" edges="4615780#1 440078644#1" />
    <route id="route_208" edges="4615780#1 114684413#1" />
    <route id="route_209" edges="4615781 -4615781" />
    <route id="route_210" edges="4615783#2 4615783#3" />
    <route id="route_211" edges="4615783#2 -4615784" />
    <route id="route_212" edges="4615783#3 4615783#4" />
    <route id="route_213" edges="4615783#3 4615785" />
    <route id="route_214" edges="4615783#4 4615783#5" />
    <route id="route_215" edges="4615783#5 203884042#1" />
    <route id="route_216" edges="4615783#5 4789051#2" />
    <route id="route_217" edges="4615783#5 440078643#1" />
    <route id="route_218" edges="4615784 -4615783#2" />
    <route id="route_219" edges="4615784 4615783#3" />
    <route id="route_220" edges="4615785 44851670#2" />
    <route id="route_221" edges="4615785 -44851670#1" />
    <route id="route_222" edges="4615786 4615783#5" />
    <route id="route_223" edges="4615786 -4615783#4" />
    <route id="route_224" edges="4616192#1 4615783#2" />
    <route id="route_225" edges="4616192#1 4615745#2" />
    <route id="route_226" edges="4616192#1 -625928996#0" />
    <route id="route_227" edges="4685636#1 338616240" />
    <route id="route_228" edges="4685636#1 338616240" />
    <route id="route_229" edges="4685636#1 338616240" />
    <route id="route_230" edges="4685638#1 8084132#0" />
    <route id="route_231" edges="4685638#1 53365275#1" />
    <route id="route_232" edges="4685638#1 53365275#1" />
    <route id="route_233" edges="4685638#1 53365275#1" />
    <route id="route_234" edges="4685638#1 -155190261#4" />
    <route id="route_235" edges="4789051#2 8084132#12" />
    <route id="route_236" edges="4789051#2 4789062#2" />
    <route id="route_237" edges="4789051#2 -8084132#7" />
    <route id="route_238" edges="4789055 8084132#13" />
    <route id="route_239" edges="4789055 -8084132#12" />
    <route id="route_240" edges="4789056#0 4789056#1" />
    <route id="route_241" edges="4789056#0 -4789057" />
    <route id="route_242" edges="4789056#1 8084132#7" />
    <route id="route_243" edges="4789056#1 -8084132#6" />
    <route id="route_244" edges="4789057 4789056#1" />
    <route id="route_245" edges="4789062#2 151974158#1" />
    <route id="route_246" edges="4789062#2 -151974158#0" />
    <route id="route_247" edges="485472400 -28222110#2" />
    <route id="route_248" edges="485472400 151974158#0" />
    <route id="route_249" edges="53365275#1 -8084129" />
    <route id="route_250" edges="53365275#1 53365275#2" />
    <route id="route_251" edges="53365275#1 53365275#2" />
    <route id="route_252" edges="53365275#1 53365275#2" />
    <route id="route_253" edges="53365281#1 288762496#0" />
    <route id="route_254" edges="53365281#1 288762496#0" />
    <route id="route_255" edges="53365281#1 288762496#0" />
    <route id="route_256" edges="53365281#1 288762496#0" />
    <route id="route_257" edges="656241856#1 823635966" />
    <route id="route_258" edges="656241856#1 823635966" />
    <route id="route_259" edges="661400763#0 69873799#0" />
    <route id="route_260" edges="661400763#0 25950000#0" />
    <route id="route_261" edges="661400763#0 28197508#0" />
    <route id="route_262" edges="69873799#0 140149258" />
    <route id="route_263" edges="746885629 -746885631" />
    <route id="route_264" edges="8084127 155190261#4" />
    <route id="route_265" edges="8084129 53365275#2" />
    <route id="route_266" edges="8084132#0 -28536387" />
    <route id="route_267" edges="8084132#0 8084132#1" />
    <route id="route_268" edges="8084132#1 -114684413#2" />
    <route id="route_269" edges="8084132#1 8084132#6" />
    <route id="route_270" edges="8084132#1 28222110#2" />
    <route id="route_271" edges="8084132#12 -4789055" />
    <route id="route_272" edges="8084132#12 8084132#13" />
    <route id="route_273" edges="8084132#13 40644892" />
    <route id="route_274" edges="8084132#13 661400763#0" />
    <route id="route_275" edges="8084132#6 8084132#7" />
    <route id="route_276" edges="8084132#7 -4789051#2" />
    <route id="route_277" edges="8084132#7 8084132#12" />
    <route id="route_278" edges="8084132#7 4789062#2" />
    <route id="route_279" edges="823635966 8084127" />
    <route id="route_280" edges="823635966 4782467#1" />
    <route id="route_281" edges="823635966 4782467#1" />
    <route id="route_282" edges="823635967#0 140498882#2" />
    <route id="route_283" edges="823635967#0 823635968#1" />
    <route id="route_284" edges="823635967#0 823635968#1" />
    <route id="route_285" edges="823635967#0 -257244833#1" />
    <route id="route_286" edges="823635968#1 4789055" />
    <route id="route_287" edges="823635968#1 823635968#2" />
    <route id="route_288" edges="823635968#1 823635968#2" />
    <route id="route_289" edges="823635968#2 440078648#0" />
    <route id="route_290" edges="823635968#2 440078648#0" />
    <route id="route_291" edges="823635968#2 440078648#0" />
    <route id="route_292" edges="823635969 823635967#0" />
    <route id="route_293" edges="823635969 823635967#0" />
    <route id="route_294" edges="823635969 823635967#0" />
    <route id="route_295" edges="8428399 -154262444#2" />
    <route id="route_296" edges="8428399 154262442#0" />
    <route id="route_297" edges="8428399 154262443" />


    <!-- Segment 1: BALANCED (DIR_A=1.0x DIR_B=1.0x DIR_C=1.0x DIR_D=1.0x DIR_E=1.0x DIR_F=1.0x DIR_G=1.0x DIR_H=1.0x DIR_I=1.0x DIR_J=1.0x DIR_K=1.0x DIR_L=1.0x DIR_M=1.0x DIR_N=1.0x DIR_O=1.0x DIR_P=1.0x DIR_Q=1.0x DIR_R=1.0x DIR_S=1.0x DIR_T=1.0x DIR_U=1.0x DIR_V=1.0x DIR_W=1.0x DIR_X=1.0x DIR_Y=1.0x DIR_Z=1.0x DIR_[=1.0x DIR_\=1.0x DIR_]=1.0x DIR_^=1.0x DIR__=1.0x DIR_`=1.0x DIR_a=1.0x DIR_b=1.0x DIR_c=1.0x DIR_d=1.0x DIR_e=1.0x DIR_f=1.0x DIR_g=1.0x DIR_h=1.0x DIR_i=1.0x DIR_j=1.0x DIR_k=1.0x DIR_l=1.0x DIR_m=1.0x DIR_n=1.0x DIR_o=1.0x DIR_p=1.0x DIR_q=1.0x DIR_r=1.0x DIR_s=1.0x DIR_t=1.0x DIR_u=1.0x DIR_v=1.0x DIR_w=1.0x DIR_x=1.0x DIR_y=1.0x DIR_z=1.0x DIR_{=1.0x DIR_|=1.0x DIR_}=1.0x DIR_~=1.0x DIR_=1.0x DIR_=1.0x DIR_=1.0x DIR_=1.0x DIR_=1.0x DIR_=1.0x DIR_=1.0x DIR_=1.0x DIR_=1.0x DIR_=1.0x DIR_=1.0x DIR_=1.0x DIR_=1.0x DIR_=1.0x DIR_=1.0x DIR_=1.0x DIR_=1.0x DIR_=1.0x DIR_=1.0x DIR_=1.0x DIR_=1.0x DIR_=1.0x DIR_=1.0x DIR_=1.0x DIR_=1.0x DIR_=1.0x DIR_=1.0x DIR_=1.0x DIR_=1.0x DIR_=1.0x DIR_=1.0x DIR_=1.0x DIR_=1.0x DIR_ =1.0x DIR_¡=1.0x DIR_¢=1.0x DIR_£=1.0x DIR_¤=1.0x DIR_¥=1.0x DIR_¦=1.0x DIR_§=1.0x DIR_¨=1.0x DIR_©=1.0x DIR_ª=1.0x DIR_«=1.0x DIR_¬=1.0x DIR_­=1.0x DIR_®=1.0x DIR_¯=1.0x DIR_°=1.0x DIR_±=1.0x DIR_²=1.0x DIR_³=1.0x DIR_´=1.0x DIR_µ=1.0x DIR_¶=1.0x DIR_·=1.0x DIR_¸=1.0x DIR_¹=1.0x DIR_º=1.0x DIR_»=1.0x DIR_¼=1.0x) | 0-600s -->
    <vehicle id="veh_0" type="passenger" route="route_26" depart="0.27" />
    <vehicle id="veh_1" type="passenger" route="route_176" depart="0.64" />
    <vehicle id="veh_2" type="passenger" route="route_44" depart="0.77" />
    <vehicle id="veh_3" type="passenger" route="route_106" depart="1.05" />
    <vehicle id="veh_4" type="passenger" route="route_256" depart="1.34" />
    <vehicle id="veh_5" type="passenger" route="route_296" depart="1.36" />
    <vehicle id="veh_6" type="passenger" route="route_88" depart="1.40" />
    <vehicle id="veh_7" type="passenger" route="route_212" depart="1.55" />
    <vehicle id="veh_8" type="passenger" route="route_267" depart="1.60" />
    <vehicle id="veh_9" type="passenger" route="route_76" depart="2.36" />
    <vehicle id="veh_10" type="passenger" route="route_24" depart="2.54" />
    <vehicle id="veh_11" type="passenger" route="route_68" depart="2.55" />
    <vehicle id="veh_12" type="passenger" route="route_157" depart="3.18" />
    <vehicle id="veh_13" type="passenger" route="route_203" depart="3.21" />
    <vehicle id="veh_14" type="passenger" route="route_268" depart="3.25" />
    <vehicle id="veh_15" type="passenger" route="route_279" depart="3.39" />
    <vehicle id="veh_16" type="passenger" route="route_210" depart="3.50" />
    <vehicle id="veh_17" type="passenger" route="route_44" depart="3.75" />
    <vehicle id="veh_18" type="passenger" route="route_150" depart="3.94" />
    <vehicle id="veh_19" type="passenger" route="route_82" depart="4.19" />
    <vehicle id="veh_20" type="passenger" route="route_256" depart="4.21" />
    <vehicle id="veh_21" type="passenger" route="route_243" depart="4.26" />
    <vehicle id="veh_22" type="passenger" route="route_158" depart="4.32" />
    <vehicle id="veh_23" type="passenger" route="route_234" depart="4.32" />
    <vehicle id="veh_24" type="passenger" route="route_36" depart="4.43" />
    <vehicle id="veh_25" type="passenger" route="route_171" depart="4.87" />
    <vehicle id="veh_26" type="passenger" route="route_76" depart="4.91" />
    <vehicle id="veh_27" type="passenger" route="route_69" depart="5.19" />
    <vehicle id="veh_28" type="passenger" route="route_94" depart="5.32" />
    <vehicle id="veh_29" type="passenger" route="route_180" depart="5.37" />
    <vehicle id="veh_30" type="passenger" route="route_270" depart="5.73" />
    <vehicle id="veh_31" type="passenger" route="route_11" depart="6.66" />
    <vehicle id="veh_32" type="passenger" route="route_233" depart="6.80" />
    <vehicle id="veh_33" type="passenger" route="route_259" depart="6.95" />
    <vehicle id="veh_34" type="passenger" route="route_19" depart="7.67" />
    <vehicle id="veh_35" type="passenger" route="route_104" depart="7.76" />
    <vehicle id="veh_36" type="passenger" route="route_16" depart="8.03" />
    <vehicle id="veh_37" type="passenger" route="route_279" depart="8.20" />
    <vehicle id="veh_38" type="passenger" route="route_149" depart="8.21" />
    <vehicle id="veh_39" type="passenger" route="route_279" depart="8.49" />
    <vehicle id="veh_40" type="passenger" route="route_84" depart="8.68" />
    <vehicle id="veh_41" type="passenger" route="route_251" depart="8.69" />
    <vehicle id="veh_42" type="passenger" route="route_155" depart="8.71" />
    <vehicle id="veh_43" type="passenger" route="route_248" depart="8.74" />
    <vehicle id="veh_44" type="passenger" route="route_147" depart="8.83" />
    <vehicle id="veh_45" type="passenger" route="route_291" depart="8.84" />
    <vehicle id="veh_46" type="passenger" route="route_35" depart="9.01" />
    <vehicle id="veh_47" type="passenger" route="route_147" depart="9.08" />
    <vehicle id="veh_48" type="passenger" route="route_259" depart="9.96" />
    <vehicle id="veh_49" type="passenger" route="route_290" depart="10.12" />
    <vehicle id="veh_50" type="passenger" route="route_76" depart="10.28" />
    <vehicle id="veh_51" type="passenger" route="route_155" depart="10.29" />
    <vehicle id="veh_52" type="passenger" route="route_129" depart="10.64" />
    <vehicle id="veh_53" type="passenger" route="route_114" depart="10.75" />
    <vehicle id="veh_54" type="passenger" route="route_115" depart="10.92" />
    <vehicle id="veh_55" type="passenger" route="route_146" depart="11.20" />
    <vehicle id="veh_56" type="passenger" route="route_2" depart="11.28" />
    <vehicle id="veh_57" type="passenger" route="route_279" depart="11.51" />
    <vehicle id="veh_58" type="passenger" route="route_155" depart="11.80" />
    <vehicle id="veh_59" type="passenger" route="route_94" depart="12.04" />
    <vehicle id="veh_60" type="passenger" route="route_216" depart="12.13" />
    <vehicle id="veh_61" type="passenger" route="route_13" depart="12.21" />
    <vehicle id="veh_62" type="passenger" route="route_89" depart="12.29" />
    <vehicle id="veh_63" type="passenger" route="route_108" depart="12.54" />
    <vehicle id="veh_64" type="passenger" route="route_204" depart="12.87" />
    <vehicle id="veh_65" type="passenger" route="route_10" depart="13.08" />
    <vehicle id="veh_66" type="passenger" route="route_222" depart="13.34" />
    <vehicle id="veh_67" type="passenger" route="route_175" depart="13.51" />
    <vehicle id="veh_68" type="passenger" route="route_159" depart="13.57" />
    <vehicle id="veh_69" type="passenger" route="route_222" depart="14.20" />
    <vehicle id="veh_70" type="passenger" route="route_218" depart="14.23" />
    <vehicle id="veh_71" type="passenger" route="route_262" depart="14.81" />
    <vehicle id="veh_72" type="passenger" route="route_36" depart="15.07" />
    <vehicle id="veh_73" type="passenger" route="route_107" depart="15.13" />
    <vehicle id="veh_74" type="passenger" route="route_190" depart="15.21" />
    <vehicle id="veh_75" type="passenger" route="route_44" depart="15.59" />
    <vehicle id="veh_76" type="passenger" route="route_151" depart="15.96" />
    <vehicle id="veh_77" type="passenger" route="route_60" depart="16.22" />
    <vehicle id="veh_78" type="passenger" route="route_88" depart="16.49" />
    <vehicle id="veh_79" type="passenger" route="route_229" depart="16.52" />
    <vehicle id="veh_80" type="passenger" route="route_229" depart="16.62" />
    <vehicle id="veh_81" type="passenger" route="route_276" depart="16.65" />
    <vehicle id="veh_82" type="passenger" route="route_247" depart="16.74" />
    <vehicle id="veh_83" type="passenger" route="route_189" depart="16.84" />
    <vehicle id="veh_84" type="passenger" route="route_49" depart="16.85" />
    <vehicle id="veh_85" type="passenger" route="route_127" depart="17.02" />
    <vehicle id="veh_86" type="passenger" route="route_175" depart="17.45" />
    <vehicle id="veh_87" type="passenger" route="route_69" depart="17.50" />
    <vehicle id="veh_88" type="passenger" route="route_212" depart="17.86" />
    <vehicle id="veh_89" type="passenger" route="route_118" depart="18.21" />
    <vehicle id="veh_90" type="passenger" route="route_130" depart="18.24" />
    <vehicle id="veh_91" type="passenger" route="route_273" depart="18.27" />
    <vehicle id="veh_92" type="passenger" route="route_160" depart="18.30" />
    <vehicle id="veh_93" type="passenger" route="route_19" depart="18.49" />
    <vehicle id="veh_94" type="passenger" route="route_139" depart="18.62" />
    <vehicle id="veh_95" type="passenger" route="route_119" depart="19.18" />
    <vehicle id="veh_96" type="passenger" route="route_243" depart="19.28" />
    <vehicle id="veh_97" type="passenger" route="route_79" depart="19.69" />
    <vehicle id="veh_98" type="passenger" route="route_129" depart="19.73" />
    <vehicle id="veh_99" type="passenger" route="route_214" depart="20.22" />
    <vehicle id="veh_100" type="passenger" route="route_296" depart="20.33" />
    <vehicle id="veh_101" type="passenger" route="route_54" depart="20.53" />
    <vehicle id="veh_102" type="passenger" route="route_94" depart="20.53" />
    <vehicle id="veh_103" type="passenger" route="route_5" depart="20.74" />
    <vehicle id="veh_104" type="passenger" route="route_157" depart="20.88" />
    <vehicle id="veh_105" type="passenger" route="route_189" depart="20.95" />
    <vehicle id="veh_106" type="passenger" route="route_102" depart="21.17" />
    <vehicle id="veh_107" type="passenger" route="route_294" depart="21.27" />
    <vehicle id="veh_108" type="passenger" route="route_101" depart="21.45" />
    <vehicle id="veh_109" type="passenger" route="route_95" depart="21.47" />
    <vehicle id="veh_110" type="passenger" route="route_286" depart="21.54" />
    <vehicle id="veh_111" type="passenger" route="route_149" depart="21.72" />
    <vehicle id="veh_112" type="passenger" route="route_23" depart="22.07" />
    <vehicle id="veh_113" type="passenger" route="route_255" depart="22.30" />
    <vehicle id="veh_114" type="passenger" route="route_56" depart="22.35" />
    <vehicle id="veh_115" type="passenger" route="route_189" depart="22.39" />
    <vehicle id="veh_116" type="passenger" route="route_287" depart="22.43" />
    <vehicle id="veh_117" type="passenger" route="route_26" depart="22.54" />
    <vehicle id="veh_118" type="passenger" route="route_29" depart="22.59" />
    <vehicle id="veh_119" type="passenger" route="route_3" depart="22.64" />
    <vehicle id="veh_120" type="passenger" route="route_253" depart="23.12" />
    <vehicle id="veh_121" type="passenger" route="route_96" depart="23.16" />
    <vehicle id="veh_122" type="passenger" route="route_198" depart="23.26" />
    <vehicle id="veh_123" type="passenger" route="route_160" depart="23.43" />
    <vehicle id="veh_124" type="passenger" route="route_237" depart="23.52" />
    <vehicle id="veh_125" type="passenger" route="route_180" depart="23.65" />
    <vehicle id="veh_126" type="passenger" route="route_94" depart="23.90" />
    <vehicle id="veh_127" type="passenger" route="route_271" depart="23.98" />
    <vehicle id="veh_128" type="passenger" route="route_34" depart="24.22" />
    <vehicle id="veh_129" type="passenger" route="route_275" depart="24.25" />
    <vehicle id="veh_130" type="passenger" route="route_132" depart="24.43" />
    <vehicle id="veh_131" type="passenger" route="route_284" depart="24.44" />
    <vehicle id="veh_132" type="passenger" route="route_267" depart="24.54" />
    <vehicle id="veh_133" type="passenger" route="route_232" depart="25.17" />
    <vehicle id="veh_134" type="passenger" route="route_145" depart="25.24" />
    <vehicle id="veh_135" type="passenger" route="route_75" depart="25.37" />
    <vehicle id="veh_136" type="passenger" route="route_214" depart="25.76" />
    <vehicle id="veh_137" type="passenger" route="route_184" depart="25.89" />