<?xml version="1.0" encoding="UTF-8"?>

<!-- generated on 2026-02-10T23:00:20.260810+01:00 by Eclipse SUMO netconvert 1.25.0
<netconvertConfiguration xmlns:xsi="http://www.w3.org/2001/XMLSchema-instance" xsi:noNamespaceSchemaLocation="http://sumo.dlr.de/xsd/netconvertConfiguration.xsd">

    <input>
        <sumo-net-file value="berlin.net.xml"/>
    </input>

    <output>
        <output-file value="berlin_sub.net.xml"/>
    </output>

    <processing>
        <geometry.min-radius.fix.railways value="false"/>
        <geometry.avoid-overlap value="false"/>
        <geometry.max-grade.fix value="false"/>
        <offset.disable-normalization value="true"/>
        <lefthand value="0"/>
    </processing>

    <edge_removal>
        <keep-edges.in-boundary value="22235.23,15280.92,22856.35,16185.97"/>
    </edge_removal>

    <junctions>
        <no-turnarounds value="true"/>
        <junctions.corner-detail value="5"/>
        <junctions.limit-turn-speed value="5.50"/>
        <rectangular-lane-cut value="0"/>
    </junctions>

    <pedestrian>
        <walkingareas value="0"/>
    </pedestrian>

</netconvertConfiguration>
-->

<net version="1.20" junctionCornerDetail="5" limitTurnSpeed="5.50" avoidOverlap="0" xmlns:xsi="http://www.w3.org/2001/XMLSchema-instance" xsi:noNamespaceSchemaLocation="http://sumo.dlr.de/xsd/net_file.xsd">

    <location netOffset="-372355.98,-5804722.35" convBoundary="22112.80,15074.59,23017.88,16269.96" origBoundary="13.122591,52.383149,13.502221,52.618113" projParameter="+proj=utm +zone=33 +ellps=WGS84 +datum=WGS84 +units=m +no_defs"/>

    <type id="highway.primary" priority="12" numLanes="2" speed="27.78" disallow="tram rail_urban rail rail_electric rail_fast ship container cable_car subway aircraft wheelchair scooter drone" oneway="0"/>
    <type id="highway.residential" priority="3" numLanes="1" speed="13.89" disallow="tram rail_urban rail rail_electric rail_fast ship container cable_car subway aircraft wheelchair scooter drone" oneway="0"/>
    <type id="highway.tertiary" priority="10" numLanes="1" speed="22.22" disallow="tram rail_urban rail rail_electric rail_fast ship container cable_car subway aircraft wheelchair scooter drone" oneway="0"/>

    <edge id=":1168825607_0" function="internal">
        <lane id=":1168825607_0_0" index="0" disallow="tram rail_urban rail rail_electric rail_fast ship cable_car subway" speed="13.89" length="8.20" shape="22457.17,16063.75 22454.89,16063.04 22453.22,16062.92 22451.54,16062.82 22449.24,16062.14"/>
        <lane id=":1168825607_0_1" index="1" disallow="tram rail_urban rail rail_electric rail_fast ship cable_car subway" speed="13.89" length="8.20" shape="22458.44,16060.81 22456.15,16060.10 22454.46,16059.98 22452.77,16059.87 22450.47,16059.18"/>
        <lane id=":1168825607_0_2" index="2" disallow="tram rail_urban rail rail_electric rail_fast ship cable_car subway" speed="13.89" length="8.20" shape="22459.70,16057.87 22457.40,16057.15 22455.71,16057.03 22454.01,16056.91 22451.69,16056.22"/>
        <lane id=":1168825607_0_3" index="3" disallow="tram rail_urban rail rail_electric rail_fast ship cable_car subway" speed="13.89" length="8.20" shape="22459.70,16057.87 22457.59,16056.69 22456.32,16055.55 22455.04,16054.42 22452.91,16053.27"/>
    </edge>
    <edge id=":1425174748_0" function="internal">
        <lane id=":1425174748_0_0" index="0" disallow="tram rail_urban rail rail_electric rail_fast ship cable_car subway" speed="8.33" length="14.40" shape="22741.17,15884.94 22735.97,15898.37"/>
    </edge>
    <edge id=":1425174748_1" function="internal">
        <lane id=":1425174748_1_0" index="0" disallow="tram rail_urban rail rail_electric rail_fast ship cable_car subway" speed="7.94" length="14.24" shape="22741.17,15884.94 22739.33,15888.36 22736.82,15890.33 22733.65,15890.86 22729.81,15889.94"/>
    </edge>
    <edge id=":1425174748_2" function="internal">
        <lane id=":1425174748_2_0" index="0" disallow="tram rail_urban rail rail_electric rail_fast ship cable_car subway" speed="6.45" length="9.04" shape="22730.98,15886.96 22733.41,15887.54 22735.43,15887.21 22737.02,15885.95 22738.19,15883.78"/>
    </edge>
    <edge id=":1425174748_3" function="internal">
        <lane id=":1425174748_3_0" index="0" disallow="tram rail_urban rail rail_electric rail_fast ship cable_car subway" speed="8.01" length="14.20" shape="22730.98,15886.96 22734.36,15888.88 22736.32,15891.43 22736.86,15894.59 22735.97,15898.37"/>
    </edge>
    <edge id=":1425174748_4" function="internal">
        <lane id=":1425174748_4_0" index="0" disallow="tram rail_urban rail rail_electric rail_fast ship cable_car subway" speed="6.52" length="9.05" shape="22732.99,15897.21 22733.56,15894.80 22733.21,15892.78 22731.96,15891.16 22729.81,15889.94"/>
    </edge>
    <edge id=":1425174748_5" function="internal">
        <lane id=":1425174748_5_0" index="0" disallow="tram rail_urban rail rail_electric rail_fast ship cable_car subway" speed="8.33" length="14.40" shape="22732.99,15897.21 22738.19,15883.78"/>
    </edge>
    <edge id=":1425174755_0" function="internal">
        <lane id=":1425174755_0_0" index="0" disallow="tram rail_urban rail rail_electric rail_fast ship cable_car subway" speed="6.54" length="9.08" shape="22710.93,15977.92 22708.50,15977.37 22706.47,15977.71 22704.84,15978.96 22703.62,15981.11"/>
    </edge>
    <edge id=":1425174755_1" function="internal">
        <lane id=":1425174755_1_0" index="0" disallow="tram rail_urban rail rail_electric rail_fast ship cable_car subway" speed="7.99" length="14.22" shape="22710.93,15977.92 22707.52,15976.03 22705.54,15973.50 22705.00,15970.34 22705.89,15966.54"/>
    </edge>
    <edge id=":1425174755_2" function="internal">
        <lane id=":1425174755_2_0" index="0" disallow="tram rail_urban rail rail_electric rail_fast ship cable_car subway" speed="6.49" length="9.03" shape="22708.87,15967.70 22708.30,15970.11 22708.65,15972.12 22709.91,15973.73 22712.07,15974.93"/>
    </edge>
    <edge id=":1425174755_3" function="internal">
        <lane id=":1425174755_3_0" index="0" disallow="tram rail_urban rail rail_electric rail_fast ship cable_car subway" speed="8.33" length="14.40" shape="22708.87,15967.70 22703.62,15981.11"/>
    </edge>
    <edge id=":1425174755_4" function="internal">
        <lane id=":1425174755_4_0" index="0" disallow="tram rail_urban rail rail_electric rail_fast ship cable_car subway" speed="8.33" length="14.39" shape="22700.64,15979.94 22705.89,15966.54"/>
    </edge>
    <edge id=":1425174755_5" function="internal">
        <lane id=":1425174755_5_0" index="0" disallow="tram rail_urban rail rail_electric rail_fast ship cable_car subway" speed="8.03" length="14.20" shape="22700.64,15979.94 22702.55,15976.57 22705.10,15974.61 22708.27,15974.07 22712.07,15974.93"/>
    </edge>
    <edge id=":1425174760_0" function="internal">
        <lane id=":1425174760_0_0" index="0" disallow="tram rail_urban rail rail_electric rail_fast ship cable_car subway" speed="3.65" length="4.67" shape="22721.83,16128.94 22720.64,16129.76 22719.75,16129.84 22719.15,16129.17 22718.85,16127.76"/>
    </edge>
    <edge id=":1426011209_0" function="internal">
        <lane id=":1426011209_0_0" index="0" disallow="tram rail_urban rail rail_electric rail_fast ship cable_car subway" speed="6.53" length="9.07" shape="22777.97,16003.81 22775.57,16003.24 22773.55,16003.58 22771.92,16004.83 22770.67,16007.00"/>
    </edge>
    <edge id=":1426011209_1" function="internal">
        <lane id=":1426011209_1_0" index="0" disallow="tram rail_urban rail rail_electric rail_fast ship cable_car subway" speed="13.89" length="14.41" shape="22777.97,16003.81 22764.55,15998.57"/>
    </edge>
    <edge id=":1426011209_2" function="internal">
        <lane id=":1426011209_2_0" index="0" disallow="tram rail_urban rail rail_electric rail_fast ship cable_car subway" speed="8.04" length="4.03" shape="22777.97,16003.81 22774.60,16001.89 22774.51,16001.77"/>
    </edge>
    <edge id=":1426011209_12" function="internal">
        <lane id=":1426011209_12_0" index="0" disallow="tram rail_urban rail rail_electric rail_fast ship cable_car subway" speed="8.04" length="10.18" shape="22774.51,16001.77 22772.64,15999.34 22772.10,15996.17 22772.96,15992.37"/>
    </edge>
    <edge id=":1426011209_3" function="internal">
        <lane id=":1426011209_3_0" index="0" disallow="tram rail_urban rail rail_electric rail_fast ship cable_car subway" speed="6.55" length="9.09" shape="22775.95,15993.52 22775.39,15995.95 22775.74,15997.98 22777.00,15999.61 22779.15,16000.84"/>
    </edge>
    <edge id=":1426011209_4" function="internal">
        <lane id=":1426011209_4_0" index="0" disallow="tram rail_urban rail rail_electric rail_fast ship cable_car subway" speed="8.33" length="14.48" shape="22775.95,15993.52 22770.67,16007.00"/>
    </edge>
    <edge id=":1426011209_5" function="internal">
        <lane id=":1426011209_5_0" index="0" disallow="tram rail_urban rail rail_electric rail_fast ship cable_car subway" speed="8.00" length="14.23" shape="22775.95,15993.52 22774.06,15996.92 22771.52,15998.90 22768.36,15999.44 22764.55,15998.57"/>
    </edge>
    <edge id=":1426011209_6" function="internal">
        <lane id=":1426011209_6_0" index="0" disallow="tram rail_urban rail rail_electric rail_fast ship cable_car subway" speed="6.51" length="9.06" shape="22765.70,15995.58 22768.13,15996.14 22770.14,15995.79 22771.75,15994.54 22772.96,15992.37"/>
    </edge>
    <edge id=":1426011209_7" function="internal">
        <lane id=":1426011209_7_0" index="0" disallow="tram rail_urban rail rail_electric rail_fast ship cable_car subway" speed="13.89" length="14.44" shape="22765.70,15995.58 22779.15,16000.84"/>
    </edge>
    <edge id=":1426011209_8" function="internal">
        <lane id=":1426011209_8_0" index="0" disallow="tram rail_urban rail rail_electric rail_fast ship cable_car subway" speed="7.98" length="4.11" shape="22765.70,15995.58 22769.11,15997.49 22769.23,15997.65"/>
    </edge>
    <edge id=":1426011209_13" function="internal">
        <lane id=":1426011209_13_0" index="0" disallow="tram rail_urban rail rail_electric rail_fast ship cable_car subway" speed="7.98" length="10.13" shape="22769.23,15997.65 22771.08,16000.03 22771.60,16003.20 22770.67,16007.00"/>
    </edge>
    <edge id=":1426011209_9" function="internal">
        <lane id=":1426011209_9_0" index="0" disallow="tram rail_urban rail rail_electric rail_fast ship cable_car subway" speed="6.48" length="9.03" shape="22767.70,16005.81 22768.29,16003.40 22767.96,16001.39 22766.71,15999.78 22764.55,15998.57"/>
    </edge>
    <edge id=":1426011209_10" function="internal">
        <lane id=":1426011209_10_0" index="0" disallow="tram rail_urban rail rail_electric rail_fast ship cable_car subway" speed="8.33" length="14.43" shape="22767.70,16005.81 22772.96,15992.37"/>
    </edge>
    <edge id=":1426011209_11" function="internal">
        <lane id=":1426011209_11_0" index="0" disallow="tram rail_urban rail rail_electric rail_fast ship cable_car subway" speed="8.02" length="14.22" shape="22767.70,16005.81 22769.65,16002.42 22772.21,16000.46 22775.37,15999.94 22779.15,16000.84"/>
    </edge>
    <edge id=":260495251_0" function="internal">
        <lane id=":260495251_0_0" index="0" disallow="tram rail_urban rail rail_electric rail_fast ship cable_car subway" speed="8.33" length="8.91" shape="22797.65,15414.22 22796.11,15412.15 22794.71,15411.00 22793.00,15410.24 22790.51,15409.32"/>
    </edge>
    <edge id=":260495251_1" function="internal">
        <lane id=":260495251_1_0" index="0" disallow="tram rail_urban rail rail_electric rail_fast ship cable_car subway" speed="7.73" length="10.25" shape="22797.65,15414.22 22796.42,15411.70 22796.06,15409.29 22796.59,15406.97 22797.99,15404.74"/>
    </edge>
    <edge id=":260495251_2" function="internal">
        <lane id=":260495251_2_0" index="0" disallow="tram rail_urban rail rail_electric rail_fast ship cable_car subway" speed="6.61" length="7.00" shape="22791.67,15406.34 22793.47,15406.79 22795.12,15406.67 22796.62,15405.99 22797.99,15404.74"/>
    </edge>
    <edge id=":260495252_0" function="internal">
        <lane id=":260495252_0_0" index="0" disallow="tram rail_urban rail rail_electric rail_fast ship cable_car subway" speed="8.33" length="8.66" shape="22812.07,15395.22 22808.38,15387.39"/>
    </edge>
    <edge id=":260495252_1" function="internal">
        <lane id=":260495252_1_0" index="0" disallow="tram rail_urban rail rail_electric rail_fast ship cable_car subway" speed="8.33" length="8.66" shape="22811.28,15386.03 22814.96,15393.86"/>
    </edge>
    <edge id=":260495252_2" function="internal">
        <lane id=":260495252_2_0" index="0" disallow="tram rail_urban rail rail_electric rail_fast ship cable_car subway" speed="7.27" length="7.75" shape="22806.65,15394.51 22807.98,15392.61 22808.71,15390.80 22808.85,15389.05 22808.38,15387.39"/>
    </edge>
    <edge id=":260495252_3" function="internal">
        <lane id=":260495252_3_0" index="0" disallow="tram rail_urban rail rail_electric rail_fast ship cable_car subway" speed="6.19" length="10.72" shape="22806.65,15394.51 22809.24,15392.01 22811.50,15391.07 22813.40,15391.69 22814.96,15393.86"/>
    </edge>
    <edge id=":2628405643_0" function="internal">
        <lane id=":2628405643_0_0" index="0" disallow="tram rail_urban rail rail_electric rail_fast ship cable_car subway" speed="8.33" length="11.10" shape="22475.77,15285.48 22465.44,15281.40"/>
    </edge>
    <edge id=":2628405643_1" function="internal">
        <lane id=":2628405643_1_0" index="0" disallow="tram rail_urban rail rail_electric rail_fast ship cable_car subway" speed="7.30" length="11.67" shape="22475.77,15285.48 22473.70,15284.07 22472.70,15281.90 22472.74,15278.97 22473.85,15275.28"/>
    </edge>
    <edge id=":2628405643_2" function="internal">
        <lane id=":2628405643_2_0" index="0" disallow="tram rail_urban rail rail_electric rail_fast ship cable_car subway" speed="6.51" length="8.99" shape="22466.61,15278.42 22469.00,15278.99 22471.00,15278.65 22472.62,15277.41 22473.85,15275.28"/>
    </edge>
    <edge id=":2628405643_3" function="internal">
        <lane id=":2628405643_3_0" index="0" disallow="tram rail_urban rail rail_electric rail_fast ship cable_car subway" speed="8.33" length="11.12" shape="22466.61,15278.42 22476.95,15282.50"/>
    </edge>
    <edge id=":2649686336_0" function="internal">
        <lane id=":2649686336_0_0" index="0" disallow="tram rail_urban rail rail_electric rail_fast ship cable_car subway" speed="13.89" length="8.18" shape="22273.91,16063.47 22274.97,16061.29 22275.37,16059.62 22275.77,16057.97 22276.88,16055.81"/>
        <lane id=":2649686336_0_1" index="1" disallow="tram rail_urban rail rail_electric rail_fast ship cable_car subway" speed="13.89" length="8.18" shape="22276.63,16065.16 22277.68,16062.99 22278.07,16061.34 22278.47,16059.70 22279.56,16057.55"/>
        <lane id=":2649686336_0_2" index="2" disallow="tram rail_urban rail rail_electric rail_fast ship cable_car subway" speed="13.89" length="8.18" shape="22279.35,16066.85 22280.39,16064.69 22280.77,16063.05 22281.16,16061.42 22282.25,16059.30"/>
        <lane id=":2649686336_0_3" index="3" disallow="tram rail_urban rail rail_electric rail_fast ship cable_car subway" speed="13.89" length="8.18" shape="22279.35,16066.85 22280.81,16064.97 22282.11,16063.93 22283.43,16062.89 22284.93,16061.04"/>
    </edge>
    <edge id=":2688549286_0" function="internal">
        <lane id=":2688549286_0_0" index="0" disallow="tram rail_urban rail rail_electric rail_fast ship cable_car subway" speed="13.89" length="8.20" shape="22554.13,15386.40 22554.75,15384.06 22554.81,15382.36 22554.88,15380.66 22555.54,15378.34"/>
        <lane id=":2688549286_0_1" index="1" disallow="tram rail_urban rail rail_electric rail_fast ship cable_car subway" speed="13.89" length="8.20" shape="22557.12,15387.53 22557.73,15385.21 22557.79,15383.52 22557.86,15381.83 22558.51,15379.52"/>
        <lane id=":2688549286_0_2" index="2" disallow="tram rail_urban rail rail_electric rail_fast ship cable_car subway" speed="13.89" length="8.20" shape="22557.12,15387.53 22558.20,15385.39 22559.28,15384.11 22560.38,15382.82 22561.49,15380.70"/>
    </edge>
    <edge id=":27195466_0" function="internal">
        <lane id=":27195466_0_0" index="0" disallow="tram rail_urban rail rail_electric rail_fast ship cable_car subway" speed="6.08" length="7.43" shape="22444.40,16258.86 22443.09,16260.40 22441.59,16261.18 22439.90,16261.21 22438.01,16260.49"/>
    </edge>
    <edge id=":27195466_1" function="internal">
        <lane id=":27195466_1_0" index="0" disallow="tram rail_urban rail rail_electric rail_fast ship cable_car subway" speed="3.91" length="2.48" shape="22439.56,16257.69 22440.19,16257.93 22440.76,16257.92 22441.26,16257.66 22441.69,16257.15"/>
    </edge>
    <edge id=":283089492_0" function="internal">
        <lane id=":283089492_0_0" index="0" disallow="tram rail_urban rail rail_electric rail_fast ship cable_car subway" speed="13.89" length="7.40" shape="22809.49,15422.78 22807.83,15424.17 22806.88,15425.33 22806.16,15426.68 22805.18,15428.65"/>
    </edge>
    <edge id=":283089492_1" function="internal">
        <lane id=":283089492_1_0" index="0" disallow="tram rail_urban rail rail_electric rail_fast ship cable_car subway" speed="6.50" length="2.11" shape="22809.49,15422.78 22807.61,15423.73"/>
    </edge>
    <edge id=":283089492_4" function="internal">
        <lane id=":283089492_4_0" index="0" disallow="tram rail_urban rail rail_electric rail_fast ship cable_car subway" speed="6.50" length="7.36" shape="22807.61,15423.73 22807.43,15423.81 22805.43,15423.75 22803.51,15422.60 22801.65,15420.35"/>
    </edge>
    <edge id=":283089492_2" function="internal">
        <lane id=":283089492_2_0" index="0" disallow="tram rail_urban rail rail_electric rail_fast ship cable_car subway" speed="7.34" length="7.20" shape="22802.35,15427.16 22802.93,15425.54 22803.01,15423.87 22802.58,15422.14 22801.65,15420.35"/>
    </edge>
    <edge id=":283089492_3" function="internal">
        <lane id=":283089492_3_0" index="0" disallow="tram rail_urban rail rail_electric rail_fast ship cable_car subway" speed="13.89" length="8.01" shape="22802.35,15427.16 22803.50,15425.09 22804.41,15423.74 22805.46,15422.48 22807.01,15420.68"/>
    </edge>
    <edge id=":283089493_0" function="internal">
        <lane id=":283089493_0_0" index="0" disallow="tram rail_urban rail rail_electric rail_fast ship cable_car subway" speed="6.09" length="9.06" shape="22823.47,15419.62 22822.08,15417.46 22820.41,15416.43 22818.45,15416.53 22816.19,15417.75"/>
    </edge>
    <edge id=":283089493_1" function="internal">
        <lane id=":283089493_1_0" index="0" disallow="tram rail_urban rail rail_electric rail_fast ship cable_car subway" speed="11.11" length="14.89" shape="22823.47,15419.62 22817.21,15406.11"/>
    </edge>
    <edge id=":283089493_2" function="internal">
        <lane id=":283089493_2_0" index="0" disallow="tram rail_urban rail rail_electric rail_fast ship cable_car subway" speed="7.99" length="4.24" shape="22823.47,15419.62 22822.25,15415.56"/>
    </edge>
    <edge id=":283089493_12" function="internal">
        <lane id=":283089493_12_0" index="0" disallow="tram rail_urban rail rail_electric rail_fast ship cable_car subway" speed="7.99" length="10.66" shape="22822.25,15415.56 22822.60,15412.21 22824.53,15409.55 22828.02,15407.60"/>
    </edge>
    <edge id=":283089493_3" function="internal">
        <lane id=":283089493_3_0" index="0" disallow="tram rail_urban rail rail_electric rail_fast ship cable_car subway" speed="6.49" length="9.47" shape="22829.14,15410.60 22826.96,15411.83 22825.78,15413.52 22825.58,15415.68 22826.38,15418.29"/>
    </edge>
    <edge id=":283089493_4" function="internal">
        <lane id=":283089493_4_0" index="0" disallow="tram rail_urban rail rail_electric rail_fast ship cable_car subway" speed="13.89" length="14.84" shape="22829.14,15410.60 22825.71,15412.03 22822.41,15413.71 22819.25,15415.62 22816.19,15417.75"/>
    </edge>
    <edge id=":283089493_5" function="internal">
        <lane id=":283089493_5_0" index="0" disallow="tram rail_urban rail rail_electric rail_fast ship cable_car subway" speed="8.28" length="3.97" shape="22829.14,15410.60 22825.27,15411.49"/>
    </edge>
    <edge id=":283089493_13" function="internal">
        <lane id=":283089493_13_0" index="0" disallow="tram rail_urban rail rail_electric rail_fast ship cable_car subway" speed="8.28" length="10.31" shape="22825.27,15411.49 22821.99,15411.03 22819.30,15409.24 22817.21,15406.11"/>
    </edge>
    <edge id=":283089493_6" function="internal">
        <lane id=":283089493_6_0" index="0" disallow="tram rail_urban rail rail_electric rail_fast ship cable_car subway" speed="6.84" length="9.43" shape="22820.10,15404.74 22821.47,15406.77 22823.25,15407.93 22825.43,15408.20 22828.02,15407.60"/>
    </edge>
    <edge id=":283089493_7" function="internal">
        <lane id=":283089493_7_0" index="0" disallow="tram rail_urban rail rail_electric rail_fast ship cable_car subway" speed="11.11" length="14.93" shape="22820.10,15404.74 22826.38,15418.29"/>
    </edge>
    <edge id=":283089493_8" function="internal">
        <lane id=":283089493_8_0" index="0" disallow="tram rail_urban rail rail_electric rail_fast ship cable_car subway" speed="8.85" length="3.98" shape="22820.10,15404.74 22821.18,15408.35 22821.16,15408.56"/>
    </edge>
    <edge id=":283089493_14" function="internal">
        <lane id=":283089493_14_0" index="0" disallow="tram rail_urban rail rail_electric rail_fast ship cable_car subway" speed="8.85" length="10.91" shape="22821.16,15408.56 22820.89,15411.72 22819.22,15414.86 22816.19,15417.75"/>
    </edge>
    <edge id=":283089493_9" function="internal">
        <lane id=":283089493_9_0" index="0" disallow="tram rail_urban rail rail_electric rail_fast ship cable_car subway" speed="7.50" length="10.46" shape="22814.28,15415.19 22816.46,15413.13 22817.68,15410.92 22817.93,15408.58 22817.21,15406.11"/>
    </edge>
    <edge id=":283089493_10" function="internal">
        <lane id=":283089493_10_0" index="0" disallow="tram rail_urban rail rail_electric rail_fast ship cable_car subway" speed="13.89" length="15.75" shape="22814.28,15415.19 22817.46,15412.99 22820.90,15410.93 22824.46,15409.10 22828.02,15407.60"/>
    </edge>
    <edge id=":283089493_11" function="internal">
        <lane id=":283089493_11_0" index="0" disallow="tram rail_urban rail rail_electric rail_fast ship cable_car subway" speed="7.67" length="4.60" shape="22814.28,15415.19 22818.02,15413.15 22818.36,15413.13"/>
    </edge>
    <edge id=":283089493_15" function="internal">
        <lane id=":283089493_15_0" index="0" disallow="tram rail_urban rail rail_electric rail_fast ship cable_car subway" speed="7.67" length="10.47" shape="22818.36,15413.13 22821.29,15412.99 22824.08,15414.70 22826.38,15418.29"/>
    </edge>
    <edge id=":29271710_0" function="internal">
        <lane id=":29271710_0_0" index="0" disallow="tram rail_urban rail rail_electric rail_fast ship cable_car subway" speed="8.33" length="14.41" shape="22261.11,15704.91 22247.69,15699.64"/>
    </edge>
    <edge id=":29271710_1" function="internal">
        <lane id=":29271710_1_0" index="0" disallow="tram rail_urban rail rail_electric rail_fast ship cable_car subway" speed="8.03" length="14.21" shape="22261.11,15704.91 22257.74,15702.99 22255.78,15700.45 22255.23,15697.27 22256.10,15693.47"/>
    </edge>
    <edge id=":29271710_2" function="internal">
        <lane id=":29271710_2_0" index="0" disallow="tram rail_urban rail rail_electric rail_fast ship cable_car subway" speed="6.54" length="9.08" shape="22259.09,15694.61 22258.53,15697.05 22258.88,15699.08 22260.12,15700.70 22262.27,15701.93"/>
    </edge>
    <edge id=":29271710_3" function="internal">
        <lane id=":29271710_3_0" index="0" disallow="tram rail_urban rail rail_electric rail_fast ship cable_car subway" speed="7.98" length="14.23" shape="22259.09,15694.61 22257.19,15698.03 22254.66,15700.00 22251.49,15700.54 22247.69,15699.64"/>
    </edge>
    <edge id=":29271710_4" function="internal">
        <lane id=":29271710_4_0" index="0" disallow="tram rail_urban rail rail_electric rail_fast ship cable_car subway" speed="6.48" length="9.03" shape="22248.87,15696.66 22251.28,15697.23 22253.29,15696.89 22254.89,15695.64 22256.10,15693.47"/>
    </edge>
    <edge id=":29271710_5" function="internal">
        <lane id=":29271710_5_0" index="0" disallow="tram rail_urban rail rail_electric rail_fast ship cable_car subway" speed="8.33" length="14.41" shape="22248.87,15696.66 22262.27,15701.93"/>
    </edge>
    <edge id=":29271711_0" function="internal">
        <lane id=":29271711_0_0" index="0" disallow="tram rail_urban rail rail_electric rail_fast ship cable_car subway" speed="8.33" length="11.09" shape="22333.34,15733.28 22323.03,15729.20"/>
    </edge>
    <edge id=":29271711_1" function="internal">
        <lane id=":29271711_1_0" index="0" disallow="tram rail_urban rail rail_electric rail_fast ship cable_car subway" speed="6.51" length="8.99" shape="22331.40,15723.06 22330.84,15725.46 22331.17,15727.47 22332.40,15729.08 22334.53,15730.31"/>
    </edge>
    <edge id=":29271711_2" function="internal">
        <lane id=":29271711_2_0" index="0" disallow="tram rail_urban rail rail_electric rail_fast ship cable_car subway" speed="7.30" length="11.67" shape="22331.40,15723.06 22329.68,15726.51 22327.72,15728.68 22325.50,15729.58 22323.03,15729.20"/>
    </edge>
    <edge id=":29271711_3" function="internal">
        <lane id=":29271711_3_0" index="0" disallow="tram rail_urban rail rail_electric rail_fast ship cable_car subway" speed="8.33" length="11.11" shape="22324.20,15726.22 22334.53,15730.31"/>
    </edge>
    <edge id=":29271712_0" function="internal">
        <lane id=":29271712_0_0" index="0" disallow="tram rail_urban rail rail_electric rail_fast ship cable_car subway" speed="6.51" length="9.02" shape="22420.81,15508.38 22418.40,15507.82 22416.40,15508.18 22414.79,15509.43 22413.58,15511.58"/>
    </edge>
    <edge id=":29271712_1" function="internal">
        <lane id=":29271712_1_0" index="0" disallow="tram rail_urban rail rail_electric rail_fast ship cable_car subway" speed="8.33" length="11.17" shape="22420.81,15508.38 22410.38,15504.36"/>
    </edge>
    <edge id=":29271712_2" function="internal">
        <lane id=":29271712_2_0" index="0" disallow="tram rail_urban rail rail_electric rail_fast ship cable_car subway" speed="8.33" length="11.17" shape="22411.53,15501.38 22421.96,15505.39"/>
    </edge>
    <edge id=":29271712_3" function="internal">
        <lane id=":29271712_3_0" index="0" disallow="tram rail_urban rail rail_electric rail_fast ship cable_car subway" speed="7.31" length="11.71" shape="22411.53,15501.38 22413.62,15502.77 22414.66,15504.93 22414.64,15507.87 22413.58,15511.58"/>
    </edge>
    <edge id=":29271713_0" function="internal">
        <lane id=":29271713_0_0" index="0" disallow="tram rail_urban rail rail_electric rail_fast ship cable_car subway" speed="6.50" length="9.03" shape="22347.08,15479.98 22344.67,15479.43 22342.66,15479.78 22341.05,15481.04 22339.85,15483.20"/>
    </edge>
    <edge id=":29271713_1" function="internal">
        <lane id=":29271713_1_0" index="0" disallow="tram rail_urban rail rail_electric rail_fast ship cable_car subway" speed="8.33" length="14.40" shape="22347.08,15479.98 22333.64,15474.81"/>
    </edge>
    <edge id=":29271713_2" function="internal">
        <lane id=":29271713_2_0" index="0" disallow="tram rail_urban rail rail_electric rail_fast ship cable_car subway" speed="8.33" length="14.40" shape="22334.79,15471.82 22348.23,15477.00"/>
    </edge>
    <edge id=":29271713_3" function="internal">
        <lane id=":29271713_3_0" index="0" disallow="tram rail_urban rail rail_electric rail_fast ship cable_car subway" speed="8.01" length="14.20" shape="22334.79,15471.82 22338.18,15473.72 22340.16,15476.25 22340.71,15479.41 22339.85,15483.20"/>
    </edge>
    <edge id=":29271713_4" function="internal">
        <lane id=":29271713_4_0" index="0" disallow="tram rail_urban rail rail_electric rail_fast ship cable_car subway" speed="6.52" length="9.04" shape="22336.86,15482.06 22337.41,15479.64 22337.06,15477.63 22335.80,15476.02 22333.64,15474.81"/>
    </edge>
    <edge id=":29271713_5" function="internal">
        <lane id=":29271713_5_0" index="0" disallow="tram rail_urban rail rail_electric rail_fast ship cable_car subway" speed="8.00" length="14.20" shape="22336.86,15482.06 22338.75,15478.66 22341.28,15476.68 22344.44,15476.13 22348.23,15477.00"/>
    </edge>
    <edge id=":29271714_0" function="internal">
        <lane id=":29271714_0_0" index="0" disallow="tram rail_urban rail rail_electric rail_fast ship cable_car subway" speed="8.33" length="11.12" shape="22449.69,15519.49 22439.31,15515.50"/>
    </edge>
    <edge id=":29271714_1" function="internal">
        <lane id=":29271714_1_0" index="0" disallow="tram rail_urban rail rail_electric rail_fast ship cable_car subway" speed="5.55" length="8.99" shape="22447.62,15509.29 22447.09,15511.70 22447.44,15513.70 22448.70,15515.31 22450.84,15516.51"/>
    </edge>
    <edge id=":29271714_2" function="internal">
        <lane id=":29271714_2_0" index="0" disallow="tram rail_urban rail rail_electric rail_fast ship cable_car subway" speed="5.55" length="11.68" shape="22447.62,15509.29 22445.94,15512.76 22444.00,15514.95 22441.79,15515.86 22439.31,15515.50"/>
    </edge>
    <edge id=":29271714_3" function="internal">
        <lane id=":29271714_3_0" index="0" disallow="tram rail_urban rail rail_electric rail_fast ship cable_car subway" speed="8.33" length="11.12" shape="22440.46,15512.51 22450.84,15516.51"/>
    </edge>
    <edge id=":29271715_0" function="internal">