<?xml version="1.0" encoding="UTF-8"?>

<!-- generated on 2026-02-11T22:59:04.650361+01:00 by Eclipse SUMO netedit 1.25.0
<neteditConfiguration xmlns:xsi="http://www.w3.org/2001/XMLSchema-instance" xsi:noNamespaceSchemaLocation="http://sumo.dlr.de/xsd/neteditConfiguration.xsd">

    <input>
        <sumo-net-file value="/home/andrea/traffic-rl/scenarios/berlin-small/d.net.xml"/>
    </input>

    <output>
        <output-file value="/home/andrea/traffic-rl/scenarios/berlin-small/d.net.xml"/>
    </output>

    <processing>
        <geometry.min-radius.fix.railways value="false"/>
        <geometry.avoid-overlap value="false"/>
        <geometry.max-grade.fix value="false"/>
        <offset.disable-normalization value="true"/>
        <lefthand value="0"/>
    </processing>

    <junctions>
        <no-turnarounds value="true"/>
        <junctions.corner-detail value="5"/>
        <junctions.limit-turn-speed value="5.50"/>
        <rectangular-lane-cut value="0"/>
    </junctions>

    <pedestrian>
        <walkingareas value="0"/>
    </pedestrian>

</neteditConfiguration>
-->

<net version="1.20" junctionCornerDetail="5" limitTurnSpeed="5.50" avoidOverlap="0" xmlns:xsi="http://www.w3.org/2001/XMLSchema-instance" xsi:noNamespaceSchemaLocation="http://sumo.dlr.de/xsd/net_file.xsd">

    <location netOffset="-372355.98,-5804722.35" convBoundary="22414.68,15304.13,22726.11,15766.13" origBoundary="13.122591,52.383149,13.502221,52.618113" projParameter="+proj=utm +zone=33 +ellps=WGS84 +datum=WGS84 +units=m +no_defs"/>

    <type id="highway.primary" priority="12" numLanes="2" speed="27.78" disallow="tram rail_urban rail rail_electric rail_fast ship container cable_car subway aircraft wheelchair scooter drone" oneway="0"/>
    <type id="highway.residential" priority="3" numLanes="1" speed="13.89" disallow="tram rail_urban rail rail_electric rail_fast ship container cable_car subway aircraft wheelchair scooter drone" oneway="0"/>

    <edge id=":29271714_0" function="internal">
        <lane id=":29271714_0_0" index="0" disallow="tram rail_urban rail rail_electric rail_fast ship cable_car subway" speed="8.33" length="0.10" shape="22444.52,15517.50 22444.53,15517.50"/>
    </edge>
    <edge id=":29271714_1" function="internal">
        <lane id=":29271714_1_0" index="0" disallow="tram rail_urban rail rail_electric rail_fast ship cable_car subway" speed="8.33" length="0.10" shape="22445.67,15514.52 22445.68,15514.52"/>
    </edge>
    <edge id=":4377813999_0" function="internal">
        <lane id=":4377813999_0_0" index="0" disallow="tram rail_urban rail rail_electric rail_fast ship cable_car subway" speed="13.89" length="8.16" shape="22545.90,15493.17 22545.19,15495.43 22545.09,15497.09 22545.01,15498.76 22544.37,15501.05"/>
        <lane id=":4377813999_0_1" index="1" disallow="tram rail_urban rail rail_electric rail_fast ship cable_car subway" speed="13.89" length="8.16" shape="22542.96,15491.90 22542.24,15494.19 22542.13,15495.87 22542.04,15497.56 22541.40,15499.87"/>
        <lane id=":4377813999_0_2" index="2" disallow="tram rail_urban rail rail_electric rail_fast ship cable_car subway" speed="13.89" length="8.16" shape="22542.96,15491.90 22541.78,15494.01 22540.64,15495.28 22539.53,15496.56 22538.42,15498.70"/>
    </edge>
    <edge id=":4377814008_0" function="internal">
        <lane id=":4377814008_0_0" index="0" disallow="tram rail_urban rail rail_electric rail_fast ship cable_car subway" speed="13.89" length="8.19" shape="22474.24,15592.24 22474.87,15589.90 22474.94,15588.20 22475.02,15586.50 22475.69,15584.18"/>
        <lane id=":4377814008_0_1" index="1" disallow="tram rail_urban rail rail_electric rail_fast ship cable_car subway" speed="13.89" length="8.19" shape="22477.23,15593.38 22477.85,15591.06 22477.92,15589.37 22478.00,15587.69 22478.66,15585.38"/>
        <lane id=":4377814008_0_2" index="2" disallow="tram rail_urban rail rail_electric rail_fast ship cable_car subway" speed="13.89" length="8.19" shape="22477.23,15593.38 22478.31,15591.25 22479.40,15589.97 22480.50,15588.70 22481.62,15586.58"/>
    </edge>
    <edge id=":cluster_12614653_1882193216_1882193222_29271706_4377814000_4377814001_4377814002_4377814003_4377814004_4377814005_4377814006_4377814007_0" function="internal">
        <lane id=":cluster_12614653_1882193216_1882193222_29271706_4377814000_4377814001_4377814002_4377814003_4377814004_4377814005_4377814006_4377814007_0_0" index="0" disallow="tram rail_urban rail rail_electric rail_fast ship cable_car subway" speed="9.36" length="19.74" shape="22540.08,15554.80 22533.50,15552.79 22528.36,15552.46 22524.66,15553.81 22522.41,15556.84"/>
    </edge>
    <edge id=":cluster_12614653_1882193216_1882193222_29271706_4377814000_4377814001_4377814002_4377814003_4377814004_4377814005_4377814006_4377814007_1" function="internal">
        <lane id=":cluster_12614653_1882193216_1882193222_29271706_4377814000_4377814001_4377814002_4377814003_4377814004_4377814005_4377814006_4377814007_1_0" index="0" disallow="tram rail_urban rail rail_electric rail_fast ship cable_car subway" speed="8.33" length="60.96" shape="22540.08,15554.80 22483.36,15532.46"/>
    </edge>
    <edge id=":cluster_12614653_1882193216_1882193222_29271706_4377814000_4377814001_4377814002_4377814003_4377814004_4377814005_4377814006_4377814007_2" function="internal">
        <lane id=":cluster_12614653_1882193216_1882193222_29271706_4377814000_4377814001_4377814002_4377814003_4377814004_4377814005_4377814006_4377814007_2_0" index="0" disallow="tram rail_urban rail rail_electric rail_fast ship cable_car subway" speed="11.11" length="14.17" shape="22540.08,15554.80 22527.16,15548.96"/>
    </edge>
    <edge id=":cluster_12614653_1882193216_1882193222_29271706_4377814000_4377814001_4377814002_4377814003_4377814004_4377814005_4377814006_4377814007_14" function="internal">
        <lane id=":cluster_12614653_1882193216_1882193222_29271706_4377814000_4377814001_4377814002_4377814003_4377814004_4377814005_4377814006_4377814007_14_0" index="0" disallow="tram rail_urban rail rail_electric rail_fast ship cable_car subway" speed="11.11" length="36.47" shape="22527.16,15548.96 22522.57,15546.88 22510.90,15539.05 22505.06,15531.30 22505.05,15523.63"/>
    </edge>
    <edge id=":cluster_12614653_1882193216_1882193222_29271706_4377814000_4377814001_4377814002_4377814003_4377814004_4377814005_4377814006_4377814007_3" function="internal">
        <lane id=":cluster_12614653_1882193216_1882193222_29271706_4377814000_4377814001_4377814002_4377814003_4377814004_4377814005_4377814006_4377814007_3_0" index="0" disallow="tram rail_urban rail rail_electric rail_fast ship cable_car subway" speed="10.12" length="23.39" shape="22531.51,15533.74 22530.29,15539.51 22531.50,15544.45 22535.15,15548.55 22541.24,15551.82"/>
    </edge>
    <edge id=":cluster_12614653_1882193216_1882193222_29271706_4377814000_4377814001_4377814002_4377814003_4377814004_4377814005_4377814006_4377814007_4" function="internal">
        <lane id=":cluster_12614653_1882193216_1882193222_29271706_4377814000_4377814001_4377814002_4377814003_4377814004_4377814005_4377814006_4377814007_4_0" index="0" disallow="tram rail_urban rail rail_electric rail_fast ship cable_car subway" speed="13.89" length="24.81" shape="22531.51,15533.74 22522.41,15556.84"/>
        <lane id=":cluster_12614653_1882193216_1882193222_29271706_4377814000_4377814001_4377814002_4377814003_4377814004_4377814005_4377814006_4377814007_4_1" index="1" disallow="tram rail_urban rail rail_electric rail_fast ship cable_car subway" speed="13.89" length="24.81" shape="22528.52,15532.59 22519.43,15555.66"/>
    </edge>
    <edge id=":cluster_12614653_1882193216_1882193222_29271706_4377814000_4377814001_4377814002_4377814003_4377814004_4377814005_4377814006_4377814007_6" function="internal">
        <lane id=":cluster_12614653_1882193216_1882193222_29271706_4377814000_4377814001_4377814002_4377814003_4377814004_4377814005_4377814006_4377814007_6_0" index="0" disallow="tram rail_urban rail rail_electric rail_fast ship cable_car subway" speed="11.11" length="27.05" shape="22525.53,15531.45 22520.68,15537.13 22512.04,15539.19 22501.43,15537.87"/>
    </edge>
    <edge id=":cluster_12614653_1882193216_1882193222_29271706_4377814000_4377814001_4377814002_4377814003_4377814004_4377814005_4377814006_4377814007_15" function="internal">
        <lane id=":cluster_12614653_1882193216_1882193222_29271706_4377814000_4377814001_4377814002_4377814003_4377814004_4377814005_4377814006_4377814007_15_0" index="0" disallow="tram rail_urban rail rail_electric rail_fast ship cable_car subway" speed="11.11" length="18.89" shape="22501.43,15537.87 22499.59,15537.64 22483.36,15532.46"/>
    </edge>
    <edge id=":cluster_12614653_1882193216_1882193222_29271706_4377814000_4377814001_4377814002_4377814003_4377814004_4377814005_4377814006_4377814007_7" function="internal">
        <lane id=":cluster_12614653_1882193216_1882193222_29271706_4377814000_4377814001_4377814002_4377814003_4377814004_4377814005_4377814006_4377814007_7_0" index="0" disallow="tram rail_urban rail rail_electric rail_fast ship cable_car subway" speed="9.74" length="21.56" shape="22484.50,15529.48 22490.47,15530.91 22495.39,15530.23 22499.25,15527.42 22502.07,15522.49"/>
    </edge>
    <edge id=":cluster_12614653_1882193216_1882193222_29271706_4377814000_4377814001_4377814002_4377814003_4377814004_4377814005_4377814006_4377814007_8" function="internal">
        <lane id=":cluster_12614653_1882193216_1882193222_29271706_4377814000_4377814001_4377814002_4377814003_4377814004_4377814005_4377814006_4377814007_8_0" index="0" disallow="tram rail_urban rail rail_electric rail_fast ship cable_car subway" speed="8.33" length="60.98" shape="22484.50,15529.48 22541.24,15551.82"/>
    </edge>
    <edge id=":cluster_12614653_1882193216_1882193222_29271706_4377814000_4377814001_4377814002_4377814003_4377814004_4377814005_4377814006_4377814007_9" function="internal">
        <lane id=":cluster_12614653_1882193216_1882193222_29271706_4377814000_4377814001_4377814002_4377814003_4377814004_4377814005_4377814006_4377814007_9_0" index="0" disallow="tram rail_urban rail rail_electric rail_fast ship cable_car subway" speed="11.11" length="19.00" shape="22484.50,15529.48 22501.43,15536.79 22501.91,15537.08"/>
    </edge>
    <edge id=":cluster_12614653_1882193216_1882193222_29271706_4377814000_4377814001_4377814002_4377814003_4377814004_4377814005_4377814006_4377814007_16" function="internal">
        <lane id=":cluster_12614653_1882193216_1882193222_29271706_4377814000_4377814001_4377814002_4377814003_4377814004_4377814005_4377814006_4377814007_16_0" index="0" disallow="tram rail_urban rail rail_electric rail_fast ship cable_car subway" speed="11.11" length="27.26" shape="22501.91,15537.08 22512.89,15543.59 22518.89,15549.88 22519.43,15555.66"/>
    </edge>
    <edge id=":cluster_12614653_1882193216_1882193222_29271706_4377814000_4377814001_4377814002_4377814003_4377814004_4377814005_4377814006_4377814007_10" function="internal">
        <lane id=":cluster_12614653_1882193216_1882193222_29271706_4377814000_4377814001_4377814002_4377814003_4377814004_4377814005_4377814006_4377814007_10_0" index="0" disallow="tram rail_urban rail rail_electric rail_fast ship cable_car subway" speed="8.59" length="16.74" shape="22491.69,15544.67 22492.35,15540.99 22491.18,15537.73 22488.18,15534.88 22483.36,15532.46"/>
    </edge>
    <edge id=":cluster_12614653_1882193216_1882193222_29271706_4377814000_4377814001_4377814002_4377814003_4377814004_4377814005_4377814006_4377814007_11" function="internal">
        <lane id=":cluster_12614653_1882193216_1882193222_29271706_4377814000_4377814001_4377814002_4377814003_4377814004_4377814005_4377814006_4377814007_11_0" index="0" disallow="tram rail_urban rail rail_electric rail_fast ship cable_car subway" speed="13.89" length="24.51" shape="22491.69,15544.67 22502.07,15522.49"/>
        <lane id=":cluster_12614653_1882193216_1882193222_29271706_4377814000_4377814001_4377814002_4377814003_4377814004_4377814005_4377814006_4377814007_11_1" index="1" disallow="tram rail_urban rail rail_electric rail_fast ship cable_car subway" speed="13.89" length="24.51" shape="22494.66,15545.85 22505.05,15523.63"/>
    </edge>
    <edge id=":cluster_12614653_1882193216_1882193222_29271706_4377814000_4377814001_4377814002_4377814003_4377814004_4377814005_4377814006_4377814007_13" function="internal">
        <lane id=":cluster_12614653_1882193216_1882193222_29271706_4377814000_4377814001_4377814002_4377814003_4377814004_4377814005_4377814006_4377814007_13_0" index="0" disallow="tram rail_urban rail rail_electric rail_fast ship cable_car subway" speed="11.11" length="24.74" shape="22497.64,15547.03 22501.96,15543.38 22510.67,15542.96 22520.80,15545.14"/>
    </edge>
    <edge id=":cluster_12614653_1882193216_1882193222_29271706_4377814000_4377814001_4377814002_4377814003_4377814004_4377814005_4377814006_4377814007_17" function="internal">
        <lane id=":cluster_12614653_1882193216_1882193222_29271706_4377814000_4377814001_4377814002_4377814003_4377814004_4377814005_4377814006_4377814007_17_0" index="0" disallow="tram rail_urban rail rail_electric rail_fast ship cable_car subway" speed="11.11" length="21.52" shape="22520.80,15545.14 22523.76,15545.77 22541.24,15551.82"/>
    </edge>

    <edge id="-4615783#4" from="29271714" to="29271712" priority="3" type="highway.residential">
        <lane id="-4615783#4_0" index="0" disallow="tram rail_urban rail rail_electric rail_fast ship cable_car subway" speed="8.33" length="30.99" shape="22444.53,15517.50 22415.61,15506.37"/>
    </edge>
    <edge id="-4615783#5" from="cluster_12614653_1882193216_1882193222_29271706_4377814000_4377814001_4377814002_4377814003_4377814004_4377814005_4377814006_4377814007" to="29271714" priority="3" type="highway.residential" shape="22483.93,15530.97 22468.79,15525.14 22445.10,15516.01">
        <lane id="-4615783#5_0" index="0" disallow="tram rail_urban rail rail_electric rail_fast ship cable_car subway" speed="8.33" length="41.61" shape="22483.36,15532.46 22468.21,15526.63 22444.52,15517.50"/>
    </edge>
    <edge id="-4789051#2" from="cluster_29784655_5960120416_5960120417_5960120418_5960120419_5960120420_5960120421_5960120422_5960120423" to="cluster_12614653_1882193216_1882193222_29271706_4377814000_4377814001_4377814002_4377814003_4377814004_4377814005_4377814006_4377814007" priority="3" type="highway.residential" shape="22714.31,15620.96 22540.66,15553.31">
        <lane id="-4789051#2_0" index="0" disallow="tram rail_urban rail rail_electric rail_fast ship cable_car subway" speed="8.33" length="199.19" shape="22725.68,15627.11 22540.08,15554.80"/>
    </edge>
    <edge id="203884042#1" from="cluster_12614653_1882193216_1882193222_29271706_4377814000_4377814001_4377814002_4377814003_4377814004_4377814005_4377814006_4377814007" to="2688549286" priority="12" type="highway.primary" spreadType="center" shape="22503.56,15523.06 22520.43,15478.90 22538.56,15431.93 22557.04,15383.23">
        <lane id="203884042#1_0" index="0" disallow="tram rail_urban rail rail_electric rail_fast ship cable_car subway" speed="13.89" length="149.71" shape="22502.07,15522.49 22518.94,15478.33 22537.07,15431.36 22555.54,15382.66"/>
        <lane id="203884042#1_1" index="1" disallow="tram rail_urban rail rail_electric rail_fast ship cable_car subway" speed="13.89" length="149.71" shape="22505.05,15523.63 22521.92,15479.47 22540.05,15432.50 22558.54,15383.80"/>
        <param key="ref" value="B 96a"/>
    </edge>
    <edge id="440078643#1" from="cluster_12614653_1882193216_1882193222_29271706_4377814000_4377814001_4377814002_4377814003_4377814004_4377814005_4377814006_4377814007" to="29784666" priority="12" type="highway.primary" spreadType="center" shape="22520.92,15556.25 22479.49,15660.85">
        <lane id="440078643#1_0" index="0" disallow="tram rail_urban rail rail_electric rail_fast ship cable_car subway" speed="13.89" length="112.51" shape="22522.41,15556.84 22480.98,15661.44"/>
        <lane id="440078643#1_1" index="1" disallow="tram rail_urban rail rail_electric rail_fast ship cable_car subway" speed="13.89" length="112.51" shape="22519.43,15555.66 22478.00,15660.26"/>
        <param key="ref" value="B 96a"/>
    </edge>
    <edge id="440078644#1" from="cluster_28150269_29271707_4377814009_4377814010_4377814011_4377814012_4377814013_4377814014_4377814015_4377814016_4377814017" to="4377814008" priority="12" type="highway.primary" spreadType="center" shape="22414.68,15752.46 22477.16,15589.08">
        <lane id="440078644#1_0" index="0" disallow="tram rail_urban rail rail_electric rail_fast ship cable_car subway" speed="13.89" length="181.39" shape="22409.45,15761.66 22474.24,15592.24"/>
        <lane id="440078644#1_1" index="1" disallow="tram rail_urban rail rail_electric rail_fast ship cable_car subway" speed="13.89" length="181.39" shape="22412.44,15762.80 22477.23,15593.38"/>
        <param key="ref" value="B 96a"/>
    </edge>
    <edge id="440078647#0" from="4377814008" to="cluster_12614653_1882193216_1882193222_29271706_4377814000_4377814001_4377814002_4377814003_4377814004_4377814005_4377814006_4377814007" priority="12" type="highway.primary" spreadType="center" shape="22477.16,15589.08 22492.83,15550.38">
        <lane id="440078647#0_0" index="0" disallow="tram rail_urban rail rail_electric rail_fast ship cable_car subway" speed="13.89" length="42.65" shape="22475.69,15584.18 22491.69,15544.67"/>
        <lane id="440078647#0_1" index="1" disallow="tram rail_urban rail rail_electric rail_fast ship cable_car subway" speed="13.89" length="42.65" shape="22478.66,15585.38 22494.66,15545.85"/>
        <lane id="440078647#0_2" index="2" disallow="tram rail_urban rail rail_electric rail_fast ship cable_car subway" speed="13.89" length="42.65" shape="22481.62,15586.58 22497.64,15547.03"/>
        <param key="ref" value="B 96a"/>
    </edge>
    <edge id="440078648#0" from="4377813999" to="cluster_12614653_1882193216_1882193222_29271706_4377814000_4377814001_4377814002_4377814003_4377814004_4377814005_4377814006_4377814007" priority="12" type="highway.primary" spreadType="center" shape="22542.85,15496.18 22529.81,15529.31">
        <lane id="440078648#0_0" index="0" disallow="tram rail_urban rail rail_electric rail_fast ship cable_car subway" speed="13.89" length="35.16" shape="22544.37,15501.05 22531.51,15533.74"/>
        <lane id="440078648#0_1" index="1" disallow="tram rail_urban rail rail_electric rail_fast ship cable_car subway" speed="13.89" length="35.16" shape="22541.40,15499.87 22528.52,15532.59"/>
        <lane id="440078648#0_2" index="2" disallow="tram rail_urban rail rail_electric rail_fast ship cable_car subway" speed="13.89" length="35.16" shape="22538.42,15498.70 22525.53,15531.45"/>
        <param key="ref" value="B 96a"/>
    </edge>
    <edge id="4615783#4" from="29271712" to="29271714" priority="3" type="highway.residential">
        <lane id="4615783#4_0" index="0" disallow="tram rail_urban rail rail_electric rail_fast ship cable_car subway" speed="8.33" length="30.99" shape="22416.75,15503.39 22445.67,15514.52"/>
    </edge>
    <edge id="4615783#5" from="29271714" to="cluster_12614653_1882193216_1882193222_29271706_4377814000_4377814001_4377814002_4377814003_4377814004_4377814005_4377814006_4377814007" priority="3" type="highway.residential" shape="22445.10,15516.01 22468.79,15525.14 22483.93,15530.97">
        <lane id="4615783#5_0" index="0" disallow="tram rail_urban rail rail_electric rail_fast ship cable_car subway" speed="8.33" length="41.61" shape="22445.68,15514.52 22469.37,15523.65 22484.50,15529.48"/>
    </edge>
    <edge id="4789051#2" from="cluster_12614653_1882193216_1882193222_29271706_4377814000_4377814001_4377814002_4377814003_4377814004_4377814005_4377814006_4377814007" to="cluster_29784655_5960120416_5960120417_5960120418_5960120419_5960120420_5960120421_5960120422_5960120423" priority="3" type="highway.residential" shape="22540.66,15553.31 22714.31,15620.96">
        <lane id="4789051#2_0" index="0" disallow="tram rail_urban rail rail_electric rail_fast ship cable_car subway" speed="8.33" length="199.19" shape="22541.24,15551.82 22726.84,15624.13"/>
    </edge>
    <edge id="823635968#2" from="29784667" to="4377813999" priority="12" type="highway.primary" spreadType="center">
        <lane id="823635968#2_0" index="0" disallow="tram rail_urban rail rail_electric rail_fast ship cable_car subway" speed="13.89" length="57.47" shape="22568.78,15440.46 22545.90,15493.17"/>
        <lane id="823635968#2_1" index="1" disallow="tram rail_urban rail rail_electric rail_fast ship cable_car subway" speed="13.89" length="57.47" shape="22565.84,15439.18 22542.96,15491.90"/>
        <param key="ref" value="B 96a"/>
    </edge>

    <tlLogic id="cluster_12614653_1882193216_1882193222_29271706_4377814000_4377814001_4377814002_4377814003_4377814004_4377814005_4377814006_4377814007" type="actuated" programID="0" offset="0">
        <phase duration="38" state="rrrGGGgrrrGGGg" minDur="5" maxDur="50"/>
        <phase duration="3"  state="rrryyygrrryyyg"/>
        <phase duration="6"  state="rrrrrrGrrrrrrG" minDur="5" maxDur="50"/>
        <phase duration="3"  state="rrrrrryrrrrrry"/>
        <phase duration="37" state="GGgrrrrGGgrrrr" minDur="5" maxDur="50"/>
        <phase duration="3"  state="yyyrrrryyyrrrr"/>
    </tlLogic>

    <junction id="2688549286" type="dead_end" x="22557.04" y="15383.23" incLanes="203884042#1_0 203884042#1_1" intLanes="" shape="22554.05,15382.09 22560.03,15384.37"/>
    <junction id="29271712" type="dead_end" x="22416.18" y="15504.88" incLanes="-4615783#4_0" intLanes="" shape="22416.18,15504.88 22415.03,15507.87 22416.18,15504.88"/>
    <junction id="29271714" type="priority" x="22445.10" y="15516.01" incLanes="-4615783#5_0 4615783#4_0" intLanes=":29271714_0_0 :29271714_1_0" shape="22443.95,15519.00 22446.25,15513.02 22443.95,15519.00">
        <request index="0" response="00" foes="00" cont="0"/>
        <request index="1" response="00" foes="00" cont="0"/>
    </junction>
    <junction id="29271715" type="dead_end" x="22526.95" y="15304.13" incLanes="" intLanes="" shape="22526.95,15304.13"/>
    <junction id="29784666" type="dead_end" x="22479.49" y="15660.85" incLanes="440078643#1_0 440078643#1_1" intLanes="" shape="22482.47,15662.03 22476.51,15659.67"/>
    <junction id="29784667" type="dead_end" x="22567.31" y="15439.82" incLanes="" intLanes="" shape="22564.37,15438.55 22570.25,15441.09"/>
    <junction id="4377813999" type="priority" x="22542.85" y="15496.18" incLanes="823635968#2_0 823635968#2_1" intLanes=":4377813999_0_0 :4377813999_0_1 :4377813999_0_2" shape="22547.37,15493.81 22541.50,15491.26 22539.92,15493.87 22539.16,15494.67 22538.42,15495.48 22537.68,15496.54 22536.93,15498.12 22545.86,15501.63 22546.55,15498.77 22546.57,15497.70 22546.60,15496.64 22546.81,15495.40">
        <request index="0" response="000" foes="000" cont="0"/>
        <request index="1" response="000" foes="000" cont="0"/>
        <request index="2" response="000" foes="000" cont="0"/>
    </junction>
    <junction id="4377814008" type="priority" x="22477.16" y="15589.08" incLanes="440078644#1_0 440078644#1_1" intLanes=":4377814008_0_0 :4377814008_0_1 :4377814008_0_2" shape="22483.11,15587.18 22474.21,15583.58 22473.47,15586.52 22473.45,15587.61 22473.43,15588.71 22473.26,15590.00 22472.75,15591.66 22478.72,15593.95 22480.16,15591.35 22480.89,15590.56 22481.62,15589.76 22482.36,15588.72">
        <request index="0" response="000" foes="000" cont="0"/>
        <request index="1" response="000" foes="000" cont="0"/>
        <request index="2" response="000" foes="000" cont="0"/>
    </junction>
    <junction id="cluster_12614653_1882193216_1882193222_29271706_4377814000_4377814001_4377814002_4377814003_4377814004_4377814005_4377814006_4377814007" type="traffic_light" x="22511.73" y="15540.74" incLanes="-4789051#2_0 440078648#0_0 440078648#0_1 440078648#0_2 4615783#5_0 440078647#0_0 440078647#0_1 440078647#0_2" intLanes=":cluster_12614653_1882193216_1882193222_29271706_4377814000_4377814001_4377814002_4377814003_4377814004_4377814005_4377814006_4377814007_0_0 :cluster_12614653_1882193216_1882193222_29271706_4377814000_4377814001_4377814002_4377814003_4377814004_4377814005_4377814006_4377814007_1_0 :cluster_12614653_1882193216_1882193222_29271706_4377814000_4377814001_4377814002_4377814003_4377814004_4377814005_4377814006_4377814007_14_0 :cluster_12614653_1882193216_1882193222_29271706_4377814000_4377814001_4377814002_4377814003_4377814004_4377814005_4377814006_4377814007_3_0 :cluster_12614653_1882193216_1882193222_29271706_4377814000_4377814001_4377814002_4377814003_4377814004_4377814005_4377814006_4377814007_4_0 :cluster_12614653_1882193216_1882193222_29271706_4377814000_4377814001_4377814002_4377814003_4377814004_4377814005_4377814006_4377814007_4_1 :cluster_12614653_1882193216_1882193222_29271706_4377814000_4377814001_4377814002_4377814003_4377814004_4377814005_4377814006_4377814007_15_0 :cluster_12614653_1882193216_1882193222_29271706_4377814000_4377814001_4377814002_4377814003_4377814004_4377814005_4377814006_4377814007_7_0 :cluster_12614653_1882193216_1882193222_29271706_4377814000_4377814001_4377814002_4377814003_4377814004_4377814005_4377814006_4377814007_8_0 :cluster_12614653_1882193216_1882193222_29271706_4377814000_4377814001_4377814002_4377814003_4377814004_4377814005_4377814006_4377814007_16_0 :cluster_12614653_1882193216_1882193222_29271706_4377814000_4377814001_4377814002_4377814003_4377814004_4377814005_4377814006_4377814007_10_0 :cluster_12614653_1882193216_1882193222_29271706_4377814000_4377814001_4377814002_4377814003_4377814004_4377814005_4377814006_4377814007_11_0 :cluster_12614653_1882193216_1882193222_29271706_4377814000_4377814001_4377814002_4377814003_4377814004_4377814005_4377814006_4377814007_11_1 :cluster_12614653_1882193216_1882193222_29271706_4377814000_4377814001_4377814002_4377814003_4377814004_4377814005_4377814006_4377814007_17_0" shape="22539.50,15556.29 22541.82,15550.33 22537.93,15548.46 22535.01,15546.28 22533.06,15543.77 22532.07,15540.94 22532.05,15537.78 22533.00,15534.31 22500.57,15521.92 22499.03,15525.00 22497.07,15527.25 22494.69,15528.68 22491.91,15529.28 22488.70,15529.04 22485.08,15527.98 22482.78,15533.96 22485.75,15535.30 22488.03,15536.79 22489.62,15538.41 22490.51,15540.16 22490.70,15542.05 22490.20,15544.08 22523.90,15557.43 22525.02,15555.66 22526.73,15554.52 22529.03,15554.02 22531.93,15554.15 22535.42,15554.90">
        <request index="0"  response="00000000110000" foes="00000000110000" cont="0"/>
        <request index="1"  response="11110001110000" foes="11111001110000" cont="0"/>
        <request index="2"  response="11100101110000" foes="11100101110000" cont="1"/>
        <request index="3"  response="00000000000000" foes="10000100000000" cont="0"/>
        <request index="4"  response="00000000000100" foes="10001100000111" cont="0"/>
        <request index="5"  response="00001000000100" foes="10001100000111" cont="0"/>
        <request index="6"  response="01111000000100" foes="01111100000110" cont="1"/>
        <request index="7"  response="01100000000000" foes="01100000000000" cont="0"/>
        <request index="8"  response="11100001111000" foes="11100001111100" cont="0"/>
        <request index="9"  response="11100001110010" foes="11100001110010" cont="1"/>
        <request index="10" response="00000000000000" foes="00000001000010" cont="0"/>
        <request index="11" response="00001000000000" foes="00001111000110" cont="0"/>
        <request index="12" response="00001000000100" foes="00001111000110" cont="0"/>
        <request index="13" response="00001000111100" foes="00001100111110" cont="1"/>
    </junction>
    <junction id="cluster_28150269_29271707_4377814009_4377814010_4377814011_4377814012_4377814013_4377814014_4377814015_4377814016_4377814017" type="dead_end" x="22421.14" y="15766.13" incLanes="" intLanes="" shape="22413.93,15763.37 22407.95,15761.09"/>
    <junction id="cluster_29784655_5960120416_5960120417_5960120418_5960120419_5960120420_5960120421_5960120422_5960120423" type="dead_end" x="22726.11" y="15626.01" incLanes="4789051#2_0" intLanes="" shape="22726.26,15625.62 22727.42,15622.63 22726.26,15625.62"/>

    <junction id=":cluster_12614653_1882193216_1882193222_29271706_4377814000_4377814001_4377814002_4377814003_4377814004_4377814005_4377814006_4377814007_14_0" type="internal" x="22527.16" y="15548.96" incLanes=":cluster_12614653_1882193216_1882193222_29271706_4377814000_4377814001_4377814002_4377814003_4377814004_4377814005_4377814006_4377814007_2_0 4615783#5_0" intLanes=":cluster_12614653_1882193216_1882193222_29271706_4377814000_4377814001_4377814002_4377814003_4377814004_4377814005_4377814006_4377814007_4_0 :cluster_12614653_1882193216_1882193222_29271706_4377814000_4377814001_4377814002_4377814003_4377814004_4377814005_4377814006_4377814007_4_1 :cluster_12614653_1882193216_1882193222_29271706_4377814000_4377814001_4377814002_4377814003_4377814004_4377814005_4377814006_4377814007_6_0 :cluster_12614653_1882193216_1882193222_29271706_4377814000_4377814001_4377814002_4377814003_4377814004_4377814005_4377814006_4377814007_7_0 :cluster_12614653_1882193216_1882193222_29271706_4377814000_4377814001_4377814002_4377814003_4377814004_4377814005_4377814006_4377814007_8_0 :cluster_12614653_1882193216_1882193222_29271706_4377814000_4377814001_4377814002_4377814003_4377814004_4377814005_4377814006_4377814007_11_0 :cluster_12614653_1882193216_1882193222_29271706_4377814000_4377814001_4377814002_4377814003_4377814004_4377814005_4377814006_4377814007_11_1 :cluster_12614653_1882193216_1882193222_29271706_4377814000_4377814001_4377814002_4377814003_4377814004_4377814005_4377814006_4377814007_13_0"/>