<?xml version="1.0" encoding="UTF-8"?>

<!-- generated on 2026-02-11 22:59:56.186274 by Eclipse SUMO cutRoutes.py UNKNOWN
<configuration>
    <routes-output value="d.rou.xml"/>
    <orig-net value="berlin-small.net.xml"/>
    <network value="d.net.xml"/>
    <routeFiles value="berlin-small.rou.xml"/>
</configuration>
-->

<routes xmlns:xsi="http://www.w3.org/2001/XMLSchema-instance" xsi:noNamespaceSchemaLocation="http://sumo.dlr.de/xsd/routes_file.xsd">
    <vType id="DefaultVehicle" length="5.00" minGap="2.00" maxSpeed="50.00" accel="1.50" decel="4.50" sigma="0.50" tau="1.00"/>
    <vehicle id="72" type="DefaultVehicle" depart="161.00">
        <route edges="4789051#2"/>
    </vehicle>
    <vehicle id="97" type="DefaultVehicle" depart="432.38" departLane="best" departSpeed="max">
        <route edges="823635968#2 440078648#0 440078643#1"/>
    </vehicle>
    <vehicle id="361" type="DefaultVehicle" depart="1127.00" departLane="best" departSpeed="max">
        <route edges="823635968#2 440078648#0 440078643#1"/>
    </vehicle>
    <vehicle id="576" type="DefaultVehicle" depart="1617.77" departLane="best" departSpeed="max">
        <route edges="440078644#1 440078647#0 203884042#1"/>
    </vehicle>
    <vehicle id="592" type="DefaultVehicle" depart="1651.77" departLane="best" departSpeed="max">
        <route edges="440078644#1 440078647#0 203884042#1"/>
    </vehicle>
    <vehicle id="744" type="DefaultVehicle" depart="2313.56" departLane="best" departSpeed="max">
        <route edges="440078644#1 440078647#0 203884042#1"/>
    </vehicle>
    <vehicle id="987" type="DefaultVehicle" depart="3981.02" departLane="best" departSpeed="max">
        <route edges="440078644#1 440078647#0 4789051#2"/>
    </vehicle>
    <vehicle id="1299" type="DefaultVehicle" depart="4671.48" departLane="best" departSpeed="max">
        <route edges="440078644#1 440078647#0 203884042#1"/>
    </vehicle>
    <vehicle id="1322" type="DefaultVehicle" depart="4783.85" departLane="best" departSpeed="max">
        <route edges="440078644#1 440078647#0 203884042#1"/>
    </vehicle>
    <vehicle id="1414" type="DefaultVehicle" depart="5077.41" departLane="best" departSpeed="max">
        <route edges="-4789051#2 203884042#1"/>
    </vehicle>
    <vehicle id="1538" type="DefaultVehicle" depart="5986.23" departLane="best" departSpeed="max">
        <route edges="823635968#2 440078648#0 440078643#1"/>
    </vehicle>
    <vehicle id="1645" type="DefaultVehicle" depart="6104.03" departLane="best" departSpeed="max">
        <route edges="-4789051#2 203884042#1"/>
    </vehicle>
    <vehicle id="1746" type="DefaultVehicle" depart="6557.43" departLane="best" departSpeed="max">
        <route edges="823635968#2 440078648#0 440078643#1"/>
    </vehicle>
    <vehicle id="1727" type="DefaultVehicle" depart="6671.88" departLane="best" departSpeed="max">
        <route edges="823635968#2 440078648#0 4789051#2"/>
    </vehicle>
    <vehicle id="2389" type="DefaultVehicle" depart="8247.99" departLane="best" departSpeed="max">
        <route edges="440078644#1 440078647#0 203884042#1"/>
    </vehicle>
    <vehicle id="2636" type="DefaultVehicle" depart="8639.63" departLane="best" departSpeed="max">
        <route edges="823635968#2 440078648#0 -4615783#5 -4615783#4"/>
    </vehicle>
    <vehicle id="2519" type="DefaultVehicle" depart="8700.26" departLane="best" departSpeed="max">
        <route edges="823635968#2 440078648#0 440078643#1"/>
    </vehicle>
    <vehicle id="2772" type="DefaultVehicle" depart="9180.15" departLane="best" departSpeed="max">
        <route edges="440078644#1 440078647#0 203884042#1"/>
    </vehicle>
    <vehicle id="2953" type="DefaultVehicle" depart="9826.63" departLane="best" departSpeed="max">
        <route edges="823635968#2 440078648#0 440078643#1"/>
    </vehicle>
    <vehicle id="3293" type="DefaultVehicle" depart="10327.98" departLane="best" departSpeed="max">
        <route edges="440078644#1 440078647#0 203884042#1"/>
    </vehicle>
    <vehicle id="3466" type="DefaultVehicle" depart="10593.49" departLane="best" departSpeed="max">
        <route edges="823635968#2 440078648#0 440078643#1"/>
    </vehicle>
    <vehicle id="3414" type="DefaultVehicle" depart="10605.27" departLane="best" departSpeed="max">
        <route edges="823635968#2 440078648#0 440078643#1"/>
    </vehicle>
    <vehicle id="3593" type="DefaultVehicle" depart="10860.05" departLane="best" departSpeed="max">
        <route edges="823635968#2 440078648#0 440078643#1"/>
    </vehicle>
    <vehicle id="3733" type="DefaultVehicle" depart="11080.80" departLane="best" departSpeed="max">
        <route edges="823635968#2 440078648#0 440078643#1"/>
    </vehicle>
    <vehicle id="3943" type="DefaultVehicle" depart="11366.14" departLane="best" departSpeed="max">
        <route edges="823635968#2 440078648#0 440078643#1"/>
    </vehicle>
    <vehicle id="3952" type="DefaultVehicle" depart="11386.14" departLane="best" departSpeed="max">
        <route edges="823635968#2 440078648#0 440078643#1"/>
    </vehicle>
    <vehicle id="3966" type="DefaultVehicle" depart="11448.85" departLane="best" departSpeed="max">
        <route edges="823635968#2 440078648#0 440078643#1"/>
    </vehicle>
    <vehicle id="4316" type="DefaultVehicle" depart="11620.12" departLane="best" departSpeed="max">
        <route edges="-4789051#2 440078643#1"/>
    </vehicle>
    <vehicle id="4150" type="DefaultVehicle" depart="11646.49" departLane="best" departSpeed="max">
        <route edges="823635968#2 440078648#0 440078643#1"/>
    </vehicle>
    <vehicle id="4375" type="DefaultVehicle" depart="11688.06" departLane="best" departSpeed="max">
        <route edges="823635968#2 440078648#0 440078643#1"/>
    </vehicle>
    <vehicle id="4470" type="DefaultVehicle" depart="11807.54" departLane="best" departSpeed="max">
        <route edges="-4789051#2 203884042#1"/>
    </vehicle>
    <vehicle id="4921" type="DefaultVehicle" depart="12414.28" departLane="best" departSpeed="max">
        <route edges="-4789051#2 440078643#1"/>
    </vehicle>
    <vehicle id="5338" type="DefaultVehicle" depart="12936.61" departLane="best" departSpeed="max">
        <route edges="823635968#2 440078648#0 4789051#2"/>
    </vehicle>
    <vehicle id="5628" type="DefaultVehicle" depart="13289.51" departLane="best" departSpeed="max">
        <route edges="4615783#4 4615783#5 4789051#2"/>
    </vehicle>
    <vehicle id="5812" type="DefaultVehicle" depart="13518.36" departLane="best" departSpeed="max">
        <route edges="823635968#2 440078648#0 440078643#1"/>
    </vehicle>
    <vehicle id="5860" type="DefaultVehicle" depart="13593.37" departLane="best" departSpeed="max">
        <route edges="823635968#2 440078648#0 440078643#1"/>
    </vehicle>
    <vehicle id="6124" type="DefaultVehicle" depart="13728.81" departLane="best" departSpeed="max">
        <route edges="823635968#2 440078648#0 440078643#1"/>
    </vehicle>
    <vehicle id="6284" type="DefaultVehicle" depart="13793.14" departLane="best" departSpeed="max">
        <route edges="4615783#4 4615783#5 4789051#2"/>
    </vehicle>
    <vehicle id="6342" type="DefaultVehicle" depart="13966.67" departLane="best" departSpeed="max">
        <route edges="823635968#2 440078648#0 440078643#1"/>
    </vehicle>
    <vehicle id="6918" type="DefaultVehicle" depart="14376.00">
        <route edges="4789051#2"/>
    </vehicle>
    <vehicle id="7776" type="DefaultVehicle" depart="15023.35" departLane="best" departSpeed="max">
        <route edges="823635968#2 440078648#0 440078643#1"/>
    </vehicle>
    <vehicle id="7722" type="DefaultVehicle" depart="15102.11" departLane="best" departSpeed="max">
        <route edges="440078644#1 440078647#0 -4615783#5 -4615783#4"/>
    </vehicle>
    <vehicle id="8387" type="DefaultVehicle" depart="15398.00">
        <route edges="4789051#2"/>
    </vehicle>
    <vehicle id="8145" type="DefaultVehicle" depart="15401.69" departLane="best" departSpeed="max">
        <route edges="823635968#2 440078648#0 440078643#1"/>
    </vehicle>
    <vehicle id="8616" type="DefaultVehicle" depart="15592.09" departLane="best" departSpeed="max">
        <route edges="-4789051#2 203884042#1"/>
    </vehicle>
    <vehicle id="8763" type="DefaultVehicle" depart="15622.00">
        <route edges="203884042#1"/>
    </vehicle>
    <vehicle id="9011" type="DefaultVehicle" depart="15775.29" departLane="best" departSpeed="max">
        <route edges="-4789051#2 203884042#1"/>
    </vehicle>
    <vehicle id="8844" type="DefaultVehicle" depart="15776.57" departLane="best" departSpeed="max">
        <route edges="823635968#2 440078648#0 440078643#1"/>
    </vehicle>
    <vehicle id="9146" type="DefaultVehicle" depart="15823.00">
        <route edges="203884042#1"/>
    </vehicle>
    <vehicle id="9002" type="DefaultVehicle" depart="15939.89" departLane="best" departSpeed="max">
        <route edges="823635968#2 440078648#0 440078643#1"/>
    </vehicle>
    <vehicle id="9357" type="DefaultVehicle" depart="15943.00">
        <route edges="823635968#2 440078648#0 440078643#1"/>
    </vehicle>
    <vehicle id="9344" type="DefaultVehicle" depart="15968.56" departLane="best" departSpeed="max">
        <route edges="4615783#4 4615783#5 440078643#1"/>
    </vehicle>
    <vehicle id="9432" type="DefaultVehicle" depart="15985.00">
        <route edges="4789051#2"/>
    </vehicle>
    <vehicle id="9669" type="DefaultVehicle" depart="16131.18" departLane="best" departSpeed="max">
        <route edges="440078644#1 440078647#0 203884042#1"/>
    </vehicle>
    <vehicle id="9522" type="DefaultVehicle" depart="16239.94" departLane="best" departSpeed="max">
        <route edges="823635968#2 440078648#0 440078643#1"/>
    </vehicle>
    <vehicle id="9398" type="DefaultVehicle" depart="16254.99" departLane="best" departSpeed="max">
        <route edges="4615783#4 4615783#5 4789051#2"/>
    </vehicle>
    <vehicle id="9927" type="DefaultVehicle" depart="16313.11" departLane="best" departSpeed="max">
        <route edges="4615783#4 4615783#5 440078643#1"/>
    </vehicle>
    <vehicle id="9561" type="DefaultVehicle" depart="16334.94" departLane="best" departSpeed="max">
        <route edges="440078644#1 440078647#0 203884042#1"/>
    </vehicle>
    <vehicle id="9494" type="DefaultVehicle" depart="16445.39" departLane="best" departSpeed="max">
        <route edges="823635968#2 440078648#0 440078643#1"/>
    </vehicle>
    <vehicle id="10198" type="DefaultVehicle" depart="16487.76" departLane="best" departSpeed="max">
        <route edges="823635968#2 440078648#0 440078643#1"/>
    </vehicle>
    <vehicle id="10340" type="DefaultVehicle" depart="16512.69" departLane="best" departSpeed="max">
        <route edges="440078644#1 440078647#0 203884042#1"/>
    </vehicle>
    <vehicle id="9770" type="DefaultVehicle" depart="16596.25" departLane="best" departSpeed="max">
        <route edges="823635968#2 440078648#0 440078643#1"/>
    </vehicle>
    <vehicle id="10242" type="DefaultVehicle" depart="16609.67" departLane="best" departSpeed="max">
        <route edges="-4789051#2 -4615783#5 -4615783#4"/>
    </vehicle>
    <vehicle id="10813" type="DefaultVehicle" depart="16679.00">
        <route edges="823635968#2 440078648#0 440078643#1"/>
    </vehicle>
    <vehicle id="11139" type="DefaultVehicle" depart="16867.07" departLane="best" departSpeed="max">
        <route edges="440078644#1 440078647#0 203884042#1"/>
    </vehicle>
    <vehicle id="11301" type="DefaultVehicle" depart="16953.48" departLane="best" departSpeed="max">
        <route edges="440078644#1 440078647#0 203884042#1"/>
    </vehicle>
    <vehicle id="11199" type="DefaultVehicle" depart="17278.39" departLane="best" departSpeed="max">
        <route edges="823635968#2 440078648#0 440078643#1"/>
    </vehicle>
    <vehicle id="13296" type="DefaultVehicle" depart="17711.83" departLane="best" departSpeed="max">
        <route edges="-4789051#2 440078643#1"/>
    </vehicle>
    <vehicle id="13508" type="DefaultVehicle" depart="17724.00">
        <route edges="4615783#5 203884042#1"/>
    </vehicle>
    <vehicle id="13516" type="DefaultVehicle" depart="17733.48" departLane="best" departSpeed="max">
        <route edges="823635968#2 440078648#0 -4615783#5 -4615783#4"/>
    </vehicle>
    <vehicle id="13529" type="DefaultVehicle" depart="17880.58" departLane="best" departSpeed="max">
        <route edges="4615783#4 4615783#5 440078643#1"/>
    </vehicle>
    <vehicle id="12947" type="DefaultVehicle" depart="17971.30" departLane="best" departSpeed="max">
        <route edges="-4789051#2 203884042#1"/>
    </vehicle>
    <vehicle id="13404" type="DefaultVehicle" depart="18013.60" departLane="best" departSpeed="max">
        <route edges="440078644#1 440078647#0 203884042#1"/>
    </vehicle>
    <vehicle id="14526" type="DefaultVehicle" depart="18031.14" departLane="best" departSpeed="max">
        <route edges="4615783#4 4615783#5 203884042#1"/>
    </vehicle>
    <vehicle id="14011" type="DefaultVehicle" depart="18168.02" departLane="best" departSpeed="max">
        <route edges="-4789051#2 203884042#1"/>
    </vehicle>
    <vehicle id="15328" type="DefaultVehicle" depart="18278.20" departLane="best" departSpeed="max">
        <route edges="-4789051#2 -4615783#5 -4615783#4"/>
    </vehicle>
    <vehicle id="15054" type="DefaultVehicle" depart="18334.05" departLane="best" departSpeed="max">
        <route edges="4615783#4"/>
    </vehicle>
    <vehicle id="15522" type="DefaultVehicle" depart="18434.71" departLane="best" departSpeed="max">
        <route edges="823635968#2 440078648#0 440078643#1"/>
    </vehicle>
    <vehicle id="16233" type="DefaultVehicle" depart="18459.00">
        <route edges="4615783#5 203884042#1"/>
    </vehicle>
    <vehicle id="16647" type="DefaultVehicle" depart="18550.00">
        <route edges="823635968#2 440078648#0 -4615783#5 -4615783#4"/>
    </vehicle>
    <vehicle id="13675" type="DefaultVehicle" depart="18632.52" departLane="best" departSpeed="max">
        <route edges="440078644#1 440078647#0 203884042#1"/>
    </vehicle>
    <vehicle id="15852" type="DefaultVehicle" depart="18634.83" departLane="best" departSpeed="max">
        <route edges="440078644#1 440078647#0 203884042#1"/>
    </vehicle>
    <vehicle id="13573" type="DefaultVehicle" depart="18650.91" departLane="best" departSpeed="max">
        <route edges="440078644#1 440078647#0 203884042#1"/>
    </vehicle>
    <vehicle id="16252" type="DefaultVehicle" depart="18679.50" departLane="best" departSpeed="max">
        <route edges="823635968#2 440078648#0 440078643#1"/>
    </vehicle>
    <vehicle id="16034" type="DefaultVehicle" depart="18704.48" departLane="best" departSpeed="max">
        <route edges="440078644#1 440078647#0 203884042#1"/>
    </vehicle>
    <vehicle id="13646" type="DefaultVehicle" depart="18723.24" departLane="best" departSpeed="max">
        <route edges="440078644#1 440078647#0 203884042#1"/>
    </vehicle>
    <vehicle id="17065" type="DefaultVehicle" depart="18809.18" departLane="best" departSpeed="max">
        <route edges="440078644#1 440078647#0"/>
    </vehicle>
    <vehicle id="17268" type="DefaultVehicle" depart="18872.25" departLane="best" departSpeed="max">
        <route edges="440078644#1 440078647#0 4789051#2"/>
    </vehicle>
    <vehicle id="17558" type="DefaultVehicle" depart="18891.15" departLane="best" departSpeed="max">
        <route edges="823635968#2 440078648#0 -4615783#5 -4615783#4"/>
    </vehicle>
    <vehicle id="14026" type="DefaultVehicle" depart="18892.51" departLane="best" departSpeed="max">
        <route edges="440078644#1 440078647#0 203884042#1"/>
    </vehicle>
    <vehicle id="14101" type="DefaultVehicle" depart="18958.26" departLane="best" departSpeed="max">
        <route edges="440078644#1 440078647#0 203884042#1"/>
    </vehicle>
    <vehicle id="17698" type="DefaultVehicle" depart="19024.48" departLane="best" departSpeed="max">
        <route edges="823635968#2 440078648#0 440078643#1"/>
    </vehicle>
    <vehicle id="17764" type="DefaultVehicle" depart="19057.39" departLane="best" departSpeed="max">
        <route edges="823635968#2 440078648#0 440078643#1"/>
    </vehicle>
    <vehicle id="18402" type="DefaultVehicle" depart="19086.23" departLane="best" departSpeed="max">
        <route edges="4615783#4 4615783#5 440078643#1"/>
    </vehicle>
    <vehicle id="14264" type="DefaultVehicle" depart="19163.98" departLane="best" departSpeed="max">
        <route edges="440078644#1 440078647#0 203884042#1"/>
    </vehicle>
    <vehicle id="15417" type="DefaultVehicle" depart="19167.15" departLane="best" departSpeed="max">
        <route edges="440078644#1 440078647#0 203884042#1"/>
    </vehicle>
    <vehicle id="18494" type="DefaultVehicle" depart="19178.59" departLane="best" departSpeed="max">
        <route edges="440078644#1 440078647#0 203884042#1"/>
    </vehicle>
    <vehicle id="14714" type="DefaultVehicle" depart="19200.53" departLane="best" departSpeed="max">
        <route edges="823635968#2 440078648#0 440078643#1"/>
    </vehicle>
    <vehicle id="19415" type="DefaultVehicle" depart="19246.64" departLane="best" departSpeed="max">
        <route edges="440078644#1 440078647#0 203884042#1"/>
    </vehicle>
    <vehicle id="17086" type="DefaultVehicle" depart="19272.91" departLane="best" departSpeed="max">
        <route edges="440078644#1 440078647#0 4789051#2"/>
    </vehicle>
    <vehicle id="19666" type="DefaultVehicle" depart="19277.88" departLane="best" departSpeed="max">
        <route edges="440078644#1 440078647#0 203884042#1"/>
    </vehicle>
    <vehicle id="18352" type="DefaultVehicle" depart="19331.56" departLane="best" departSpeed="max">
        <route edges="-4789051#2 440078643#1"/>
    </vehicle>
    <vehicle id="15503" type="DefaultVehicle" depart="19349.47" departLane="best" departSpeed="max">
        <route edges="823635968#2 440078648#0 440078643#1"/>
    </vehicle>
    <vehicle id="19758" type="DefaultVehicle" depart="19354.42" departLane="best" departSpeed="max">
        <route edges="440078644#1 440078647#0 203884042#1"/>
    </vehicle>
    <vehicle id="18633" type="DefaultVehicle" depart="19357.43" departLane="best" departSpeed="max">
        <route edges="440078644#1 440078647#0 203884042#1"/>
    </vehicle>
    <vehicle id="18765" type="DefaultVehicle" depart="19407.52" departLane="best" departSpeed="max">
        <route edges="823635968#2 440078648#0 440078643#1"/>
    </vehicle>
    <vehicle id="20812" type="DefaultVehicle" depart="19470.52" departLane="best" departSpeed="max">
        <route edges="440078644#1 440078647#0 203884042#1"/>
    </vehicle>
    <vehicle id="20814" type="DefaultVehicle" depart="19489.90" departLane="best" departSpeed="max">
        <route edges="823635968#2 440078648#0 440078643#1"/>
    </vehicle>
    <vehicle id="19550" type="DefaultVehicle" depart="19500.23" departLane="best" departSpeed="max">
        <route edges="823635968#2 440078648#0 440078643#1"/>
    </vehicle>
    <vehicle id="20717" type="DefaultVehicle" depart="19511.09" departLane="best" departSpeed="max">
        <route edges="440078644#1 440078647#0 203884042#1"/>
    </vehicle>
    <vehicle id="22034" type="DefaultVehicle" depart="19512.07" departLane="best" departSpeed="max">
        <route edges="440078644#1 440078647#0 203884042#1"/>
    </vehicle>
    <vehicle id="20810" type="DefaultVehicle" depart="19522.79" departLane="best" departSpeed="max">
        <route edges="823635968#2 440078648#0 440078643#1"/>
    </vehicle>
    <vehicle id="21228" type="DefaultVehicle" depart="19528.82" departLane="best" departSpeed="max">
        <route edges="440078644#1 440078647#0 203884042#1"/>
    </vehicle>
    <vehicle id="21000" type="DefaultVehicle" depart="19550.64" departLane="best" departSpeed="max">
        <route edges="440078644#1 440078647#0 203884042#1"/>
    </vehicle>
    <vehicle id="21525" type="DefaultVehicle" depart="19562.15" departLane="best" departSpeed="max">
        <route edges="440078644#1 440078647#0 203884042#1"/>
    </vehicle>
    <vehicle id="21903" type="DefaultVehicle" depart="19574.84" departLane="best" departSpeed="max">
        <route edges="440078644#1 440078647#0 203884042#1"/>
    </vehicle>
    <vehicle id="22230" type="DefaultVehicle" depart="19582.00" departLane="best" departSpeed="max">
        <route edges="440078644#1 440078647#0 203884042#1"/>
    </vehicle>
    <vehicle id="20214" type="DefaultVehicle" depart="19602.59" departLane="best" departSpeed="max">
        <route edges="823635968#2 440078648#0 440078643#1"/>
    </vehicle>
    <vehicle id="19408" type="DefaultVehicle" depart="19627.52" departLane="best" departSpeed="max">
        <route edges="823635968#2 440078648#0 440078643#1"/>
    </vehicle>
    <vehicle id="19619" type="DefaultVehicle" depart="19631.34" departLane="best" departSpeed="max">
        <route edges="823635968#2 440078648#0 440078643#1"/>
    </vehicle>
    <vehicle id="21846" type="DefaultVehicle" depart="19635.51" departLane="best" departSpeed="max">
        <route edges="440078644#1 440078647#0 203884042#1"/>
    </vehicle>
    <vehicle id="21615" type="DefaultVehicle" depart="19636.38" departLane="best" departSpeed="max">
        <route edges="440078644#1 440078647#0 203884042#1"/>
    </vehicle>
    <vehicle id="22020" type="DefaultVehicle" depart="19636.52" departLane="best" departSpeed="max">
        <route edges="440078644#1 440078647#0 203884042#1"/>
    </vehicle>
    <vehicle id="16326" type="DefaultVehicle" depart="19639.05" departLane="best" departSpeed="max">
        <route edges="823635968#2 440078648#0 440078643#1"/>
    </vehicle>
    <vehicle id="22542" type="DefaultVehicle" depart="19650.31" departLane="best" departSpeed="max">
        <route edges="823635968#2 440078648#0 440078643#1"/>
    </vehicle>
    <vehicle id="22097" type="DefaultVehicle" depart="19658.06" departLane="best" departSpeed="max">
        <route edges="440078644#1 440078647#0 203884042#1"/>
    </vehicle>
    <vehicle id="23038" type="DefaultVehicle" depart="19699.51" departLane="best" departSpeed="max">
        <route edges="440078644#1 440078647#0 203884042#1"/>
    </vehicle>
    <vehicle id="23177" type="DefaultVehicle" depart="19717.36" departLane="best" departSpeed="max">
        <route edges="440078644#1 440078647#0 203884042#1"/>
    </vehicle>
    <vehicle id="16853" type="DefaultVehicle" depart="19722.78" departLane="best" departSpeed="max">
        <route edges="440078644#1 440078647#0 203884042#1"/>
    </vehicle>
    <vehicle id="24239" type="DefaultVehicle" depart="19731.00">
        <route edges="4789051#2"/>
    </vehicle>
    <vehicle id="22847" type="DefaultVehicle" depart="19736.52" departLane="best" departSpeed="max">
        <route edges="440078644#1 440078647#0 203884042#1"/>
    </vehicle>
    <vehicle id="18922" type="DefaultVehicle" depart="19740.70" departLane="best" departSpeed="max">
        <route edges="440078644#1 440078647#0 203884042#1"/>
    </vehicle>
    <vehicle id="20421" type="DefaultVehicle" depart="19742.49" departLane="best" departSpeed="max">
        <route edges="823635968#2 440078648#0 440078643#1"/>
    </vehicle>
    <vehicle id="23749" type="DefaultVehicle" depart="19750.65" departLane="best" departSpeed="max">
        <route edges="-4789051#2 440078643#1"/>
    </vehicle>
    <vehicle id="20116" type="DefaultVehicle" depart="19759.62" departLane="best" departSpeed="max">
        <route edges="823635968#2 440078648#0 440078643#1"/>
    </vehicle>
    <vehicle id="24229" type="DefaultVehicle" depart="19762.56" departLane="best" departSpeed="max">
        <route edges="4615783#4 4615783#5 203884042#1"/>
    </vehicle>
    <vehicle id="22202" type="DefaultVehicle" depart="19764.18" departLane="best" departSpeed="max">
        <route edges="440078644#1 440078647#0 203884042#1"/>
    </vehicle>
    <vehicle id="22963" type="DefaultVehicle" depart="19797.76" departLane="best" departSpeed="max">
        <route edges="823635968#2 440078648#0 440078643#1"/>
    </vehicle>
    <vehicle id="21316" type="DefaultVehicle" depart="19802.16" departLane="best" departSpeed="max">
        <route edges="440078644#1 440078647#0 203884042#1"/>
    </vehicle>
    <vehicle id="24640" type="DefaultVehicle" depart="19812.07" departLane="best" departSpeed="max">
        <route edges="440078644#1 440078647#0 203884042#1"/>
    </vehicle>
    <vehicle id="23571" type="DefaultVehicle" depart="19816.21" departLane="best" departSpeed="max">
        <route edges="440078644#1 440078647#0 203884042#1"/>
    </vehicle>
    <vehicle id="23380" type="DefaultVehicle" depart="19835.17" departLane="best" departSpeed="max">
        <route edges="440078644#1 440078647#0 203884042#1"/>
    </vehicle>
    <vehicle id="21633" type="DefaultVehicle" depart="19851.89" departLane="best" departSpeed="max">
        <route edges="823635968#2 440078648#0 440078643#1"/>
    </vehicle>
    <vehicle id="24031" type="DefaultVehicle" depart="19867.96" departLane="best" departSpeed="max">
        <route edges="440078644#1 440078647#0 203884042#1"/>
    </vehicle>
    <vehicle id="24076" type="DefaultVehicle" depart="19887.51" departLane="best" departSpeed="max">
        <route edges="440078644#1 440078647#0 203884042#1"/>
    </vehicle>
    <vehicle id="17623" type="DefaultVehicle" depart="19890.40" departLane="best" departSpeed="max">
        <route edges="823635968#2 440078648#0 440078643#1"/>
    </vehicle>
    <vehicle id="25129" type="DefaultVehicle" depart="19912.36" departLane="best" departSpeed="max">
        <route edges="440078644#1 440078647#0 203884042#1"/>
    </vehicle>
    <vehicle id="20884" type="DefaultVehicle" depart="19931.62" departLane="best" departSpeed="max">
        <route edges="823635968#2 440078648#0 440078643#1"/>
    </vehicle>
    <vehicle id="22116" type="DefaultVehicle" depart="19989.29" departLane="best" departSpeed="max">
        <route edges="823635968#2 440078648#0 440078643#1"/>
    </vehicle>
    <vehicle id="15815" type="DefaultVehicle" depart="19990.77" departLane="best" departSpeed="max">
        <route edges="823635968#2 440078648#0 440078643#1"/>
    </vehicle>
    <vehicle id="22144" type="DefaultVehicle" depart="19993.29" departLane="best" departSpeed="max">
        <route edges="823635968#2 440078648#0 440078643#1"/>
    </vehicle>
    <vehicle id="18990" type="DefaultVehicle" depart="20008.54" departLane="best" departSpeed="max">
        <route edges="823635968#2 440078648#0 440078643#1"/>
    </vehicle>
    <vehicle id="22281" type="DefaultVehicle" depart="20009.47" departLane="best" departSpeed="max">
        <route edges="823635968#2 440078648#0 440078643#1"/>
    </vehicle>
    <vehicle id="25012" type="DefaultVehicle" depart="20030.79" departLane="best" departSpeed="max">
        <route edges="823635968#2 440078648#0 440078643#1"/>
    </vehicle>
    <vehicle id="27526" type="DefaultVehicle" depart="20064.00">
        <route edges="823635968#2 440078648#0 4789051#2"/>
    </vehicle>
    <vehicle id="27364" type="DefaultVehicle" depart="20124.83" departLane="best" departSpeed="max">
        <route edges="440078644#1 440078647#0 203884042#1"/>
    </vehicle>
    <vehicle id="19880" type="DefaultVehicle" depart="20170.96" departLane="best" departSpeed="max">
        <route edges="823635968#2 440078648#0 440078643#1"/>
    </vehicle>
    <vehicle id="27007" type="DefaultVehicle" depart="20187.13" departLane="best" departSpeed="max">
        <route edges="823635968#2 440078648#0 440078643#1"/>
    </vehicle>
    <vehicle id="27365" type="DefaultVehicle" depart="20219.18" departLane="best" departSpeed="max">
        <route edges="440078644#1 440078647#0 203884042#1"/>
    </vehicle>
    <vehicle id="29308" type="DefaultVehicle" depart="20241.79" departLane="best" departSpeed="max">
        <route edges="823635968#2 440078648#0 440078643#1"/>
    </vehicle>
    <vehicle id="20567" type="DefaultVehicle" depart="20243.94" departLane="best" departSpeed="max">
        <route edges="823635968#2 440078648#0 440078643#1"/>
    </vehicle>
    <vehicle id="23842" type="DefaultVehicle" depart="20254.92" departLane="best" departSpeed="max">
        <route edges="823635968#2 440078648#0 440078643#1"/>
    </vehicle>
    <vehicle id="19323" type="DefaultVehicle" depart="20275.91" departLane="best" departSpeed="max">
        <route edges="823635968#2 440078648#0 440078643#1"/>
    </vehicle>
    <vehicle id="28776" type="DefaultVehicle" depart="20297.74" departLane="best" departSpeed="max">
        <route edges="440078644#1 440078647#0 203884042#1"/>
    </vehicle>
    <vehicle id="19333" type="DefaultVehicle" depart="20299.07" departLane="best" departSpeed="max">
        <route edges="823635968#2 440078648#0 440078643#1"/>
    </vehicle>
    <vehicle id="28483" type="DefaultVehicle" depart="20314.52" departLane="best" departSpeed="max">
        <route edges="440078644#1 440078647#0 203884042#1"/>
    </vehicle>
    <vehicle id="19677" type="DefaultVehicle" depart="20357.07" departLane="best" departSpeed="max">
        <route edges="823635968#2 440078648#0 440078643#1"/>
    </vehicle>
    <vehicle id="30902" type="DefaultVehicle" depart="20360.00">
        <route edges="4615783#5 203884042#1"/>
    </vehicle>
    <vehicle id="28189" type="DefaultVehicle" depart="20363.30" departLane="best" departSpeed="max">
        <route edges="823635968#2 440078648#0 440078643#1"/>
    </vehicle>
    <vehicle id="29865" type="DefaultVehicle" depart="20363.64" departLane="best" departSpeed="max">
        <route edges="440078644#1 440078647#0 203884042#1"/>
    </vehicle>
    <vehicle id="30374" type="DefaultVehicle" depart="20365.13" departLane="best" departSpeed="max">
        <route edges="4615783#4 4615783#5 203884042#1"/>
    </vehicle>
    <vehicle id="21629" type="DefaultVehicle" depart="20383.45" departLane="best" departSpeed="max">
        <route edges="823635968#2 440078648#0 440078643#1"/>