<?xml version="1.0" encoding="UTF-8"?>
<!-- Auto-generated Traffic Pattern Library -->
<!-- Total Duration: 7200s (2.0 hours) -->
<!-- Network: f.net.xml -->
<routes>
    <vType id="passenger" accel="0.8" decel="4.5" length="5.0" minGap="2.5" maxSpeed="13.89" vClass="passenger" />

    <route id="route_0" edges="-8084132#0 53365275#1" />
    <route id="route_1" edges="-8084132#0 -155190261#4" />
    <route id="route_2" edges="155190261#4 53365281#1" />
    <route id="route_3" edges="155190261#4 8084132#0" />
    <route id="route_4" edges="155190261#4 53365275#1" />
    <route id="route_5" edges="288762497#0 -155190261#4" />
    <route id="route_6" edges="288762497#0 53365281#1" />
    <route id="route_7" edges="288762497#0 53365281#1" />
    <route id="route_8" edges="288762497#0 53365281#1" />
    <route id="route_9" edges="288762497#0 8084132#0" />
    <route id="route_10" edges="4685638#1 8084132#0" />
    <route id="route_11" edges="4685638#1 53365275#1" />
    <route id="route_12" edges="4685638#1 53365275#1" />
    <route id="route_13" edges="4685638#1 53365275#1" />
    <route id="route_14" edges="4685638#1 -155190261#4" />


    <!-- Segment 1: BALANCED (DIR_A=1.0x DIR_B=1.0x DIR_C=1.0x DIR_D=1.0x) | 0-600s -->
    <vehicle id="veh_0" type="passenger" route="route_1" depart="4.56" />
    <vehicle id="veh_1" type="passenger" route="route_8" depart="10.74" />
    <vehicle id="veh_2" type="passenger" route="route_1" depart="12.76" />
    <vehicle id="veh_3" type="passenger" route="route_5" depart="17.57" />
    <vehicle id="veh_4" type="passenger" route="route_12" depart="22.32" />
    <vehicle id="veh_5" type="passenger" route="route_14" depart="22.63" />
    <vehicle id="veh_6" type="passenger" route="route_3" depart="23.25" />
    <vehicle id="veh_7" type="passenger" route="route_11" depart="25.79" />
    <vehicle id="veh_8" type="passenger" route="route_13" depart="26.67" />
    <vehicle id="veh_9" type="passenger" route="route_3" depart="39.37" />
    <vehicle id="veh_10" type="passenger" route="route_1" depart="42.37" />
    <vehicle id="veh_11" type="passenger" route="route_3" depart="42.44" />
    <vehicle id="veh_12" type="passenger" route="route_7" depart="52.96" />
    <vehicle id="veh_13" type="passenger" route="route_10" depart="53.57" />
    <vehicle id="veh_14" type="passenger" route="route_13" depart="54.11" />
    <vehicle id="veh_15" type="passenger" route="route_13" depart="56.52" />
    <vehicle id="veh_16" type="passenger" route="route_11" depart="58.40" />
    <vehicle id="veh_17" type="passenger" route="route_1" depart="62.50" />
    <vehicle id="veh_18" type="passenger" route="route_7" depart="65.68" />
    <vehicle id="veh_19" type="passenger" route="route_3" depart="69.82" />
    <vehicle id="veh_20" type="passenger" route="route_12" depart="70.18" />
    <vehicle id="veh_21" type="passenger" route="route_12" depart="70.97" />
    <vehicle id="veh_22" type="passenger" route="route_7" depart="71.93" />
    <vehicle id="veh_23" type="passenger" route="route_11" depart="72.06" />
    <vehicle id="veh_24" type="passenger" route="route_1" depart="73.87" />
    <vehicle id="veh_25" type="passenger" route="route_8" depart="81.22" />
    <vehicle id="veh_26" type="passenger" route="route_3" depart="81.78" />
    <vehicle id="veh_27" type="passenger" route="route_3" depart="86.54" />
    <vehicle id="veh_28" type="passenger" route="route_4" depart="88.73" />
    <vehicle id="veh_29" type="passenger" route="route_8" depart="89.58" />
    <vehicle id="veh_30" type="passenger" route="route_13" depart="95.47" />
    <vehicle id="veh_31" type="passenger" route="route_0" depart="111.07" />
    <vehicle id="veh_32" type="passenger" route="route_11" depart="113.29" />
    <vehicle id="veh_33" type="passenger" route="route_12" depart="115.81" />
    <vehicle id="veh_34" type="passenger" route="route_1" depart="127.92" />
    <vehicle id="veh_35" type="passenger" route="route_5" depart="129.35" />
    <vehicle id="veh_36" type="passenger" route="route_1" depart="133.76" />
    <vehicle id="veh_37" type="passenger" route="route_13" depart="136.65" />
    <vehicle id="veh_38" type="passenger" route="route_7" depart="136.78" />
    <vehicle id="veh_39" type="passenger" route="route_13" depart="141.43" />
    <vehicle id="veh_40" type="passenger" route="route_3" depart="144.63" />
    <vehicle id="veh_41" type="passenger" route="route_12" depart="144.87" />
    <vehicle id="veh_42" type="passenger" route="route_7" depart="145.19" />
    <vehicle id="veh_43" type="passenger" route="route_12" depart="145.65" />
    <vehicle id="veh_44" type="passenger" route="route_7" depart="147.20" />
    <vehicle id="veh_45" type="passenger" route="route_13" depart="147.32" />
    <vehicle id="veh_46" type="passenger" route="route_1" depart="150.19" />
    <vehicle id="veh_47" type="passenger" route="route_7" depart="151.29" />
    <vehicle id="veh_48" type="passenger" route="route_12" depart="166.03" />
    <vehicle id="veh_49" type="passenger" route="route_13" depart="168.64" />
    <vehicle id="veh_50" type="passenger" route="route_3" depart="171.40" />
    <vehicle id="veh_51" type="passenger" route="route_7" depart="171.50" />
    <vehicle id="veh_52" type="passenger" route="route_6" depart="177.37" />
    <vehicle id="veh_53" type="passenger" route="route_6" depart="179.18" />
    <vehicle id="veh_54" type="passenger" route="route_6" depart="182.03" />
    <vehicle id="veh_55" type="passenger" route="route_7" depart="186.71" />
    <vehicle id="veh_56" type="passenger" route="route_0" depart="188.02" />
    <vehicle id="veh_57" type="passenger" route="route_13" depart="191.85" />
    <vehicle id="veh_58" type="passenger" route="route_7" depart="196.68" />
    <vehicle id="veh_59" type="passenger" route="route_4" depart="200.70" />
    <vehicle id="veh_60" type="passenger" route="route_11" depart="202.23" />
    <vehicle id="veh_61" type="passenger" route="route_1" depart="203.46" />
    <vehicle id="veh_62" type="passenger" route="route_3" depart="204.87" />
    <vehicle id="veh_63" type="passenger" route="route_5" depart="209.04" />
    <vehicle id="veh_64" type="passenger" route="route_10" depart="214.53" />
    <vehicle id="veh_65" type="passenger" route="route_0" depart="217.94" />
    <vehicle id="veh_66" type="passenger" route="route_11" depart="222.35" />
    <vehicle id="veh_67" type="passenger" route="route_8" depart="225.10" />
    <vehicle id="veh_68" type="passenger" route="route_7" depart="226.14" />
    <vehicle id="veh_69" type="passenger" route="route_11" depart="236.64" />
    <vehicle id="veh_70" type="passenger" route="route_11" depart="237.20" />
    <vehicle id="veh_71" type="passenger" route="route_12" depart="246.90" />
    <vehicle id="veh_72" type="passenger" route="route_1" depart="251.16" />
    <vehicle id="veh_73" type="passenger" route="route_5" depart="252.10" />
    <vehicle id="veh_74" type="passenger" route="route_8" depart="253.57" />
    <vehicle id="veh_75" type="passenger" route="route_1" depart="259.81" />
    <vehicle id="veh_76" type="passenger" route="route_7" depart="266.06" />
    <vehicle id="veh_77" type="passenger" route="route_3" depart="270.41" />
    <vehicle id="veh_78" type="passenger" route="route_3" depart="274.86" />
    <vehicle id="veh_79" type="passenger" route="route_11" depart="275.29" />
    <vehicle id="veh_80" type="passenger" route="route_11" depart="276.94" />
    <vehicle id="veh_81" type="passenger" route="route_13" depart="277.46" />
    <vehicle id="veh_82" type="passenger" route="route_12" depart="278.97" />
    <vehicle id="veh_83" type="passenger" route="route_8" depart="280.67" />
    <vehicle id="veh_84" type="passenger" route="route_2" depart="280.89" />
    <vehicle id="veh_85" type="passenger" route="route_6" depart="283.75" />
    <vehicle id="veh_86" type="passenger" route="route_8" depart="290.80" />
    <vehicle id="veh_87" type="passenger" route="route_3" depart="291.71" />
    <vehicle id="veh_88" type="passenger" route="route_11" depart="297.65" />
    <vehicle id="veh_89" type="passenger" route="route_6" depart="303.49" />
    <vehicle id="veh_90" type="passenger" route="route_6" depart="303.92" />
    <vehicle id="veh_91" type="passenger" route="route_13" depart="304.46" />
    <vehicle id="veh_92" type="passenger" route="route_7" depart="304.94" />
    <vehicle id="veh_93" type="passenger" route="route_1" depart="308.08" />
    <vehicle id="veh_94" type="passenger" route="route_6" depart="310.38" />
    <vehicle id="veh_95" type="passenger" route="route_6" depart="319.61" />
    <vehicle id="veh_96" type="passenger" route="route_12" depart="321.25" />
    <vehicle id="veh_97" type="passenger" route="route_3" depart="328.13" />
    <vehicle id="veh_98" type="passenger" route="route_6" depart="328.87" />
    <vehicle id="veh_99" type="passenger" route="route_11" depart="336.94" />
    <vehicle id="veh_100" type="passenger" route="route_14" depart="338.91" />
    <vehicle id="veh_101" type="passenger" route="route_2" depart="342.17" />
    <vehicle id="veh_102" type="passenger" route="route_4" depart="342.19" />
    <vehicle id="veh_103" type="passenger" route="route_0" depart="345.61" />
    <vehicle id="veh_104" type="passenger" route="route_7" depart="348.07" />
    <vehicle id="veh_105" type="passenger" route="route_8" depart="349.18" />
    <vehicle id="veh_106" type="passenger" route="route_5" depart="352.90" />
    <vehicle id="veh_107" type="passenger" route="route_14" depart="354.48" />
    <vehicle id="veh_108" type="passenger" route="route_5" depart="357.55" />
    <vehicle id="veh_109" type="passenger" route="route_4" depart="357.89" />
    <vehicle id="veh_110" type="passenger" route="route_13" depart="358.92" />
    <vehicle id="veh_111" type="passenger" route="route_7" depart="362.04" />
    <vehicle id="veh_112" type="passenger" route="route_1" depart="367.77" />
    <vehicle id="veh_113" type="passenger" route="route_12" depart="371.73" />
    <vehicle id="veh_114" type="passenger" route="route_2" depart="372.58" />
    <vehicle id="veh_115" type="passenger" route="route_8" depart="373.15" />
    <vehicle id="veh_116" type="passenger" route="route_13" depart="373.85" />
    <vehicle id="veh_117" type="passenger" route="route_1" depart="375.62" />
    <vehicle id="veh_118" type="passenger" route="route_1" depart="376.47" />
    <vehicle id="veh_119" type="passenger" route="route_0" depart="377.30" />
    <vehicle id="veh_120" type="passenger" route="route_12" depart="385.26" />
    <vehicle id="veh_121" type="passenger" route="route_4" depart="386.01" />
    <vehicle id="veh_122" type="passenger" route="route_10" depart="387.74" />
    <vehicle id="veh_123" type="passenger" route="route_7" depart="390.55" />
    <vehicle id="veh_124" type="passenger" route="route_11" depart="391.94" />
    <vehicle id="veh_125" type="passenger" route="route_8" depart="394.11" />
    <vehicle id="veh_126" type="passenger" route="route_4" depart="398.27" />
    <vehicle id="veh_127" type="passenger" route="route_13" depart="399.59" />
    <vehicle id="veh_128" type="passenger" route="route_1" depart="403.70" />
    <vehicle id="veh_129" type="passenger" route="route_13" depart="404.20" />
    <vehicle id="veh_130" type="passenger" route="route_6" depart="407.12" />
    <vehicle id="veh_131" type="passenger" route="route_13" depart="407.36" />
    <vehicle id="veh_132" type="passenger" route="route_13" depart="409.08" />
    <vehicle id="veh_133" type="passenger" route="route_11" depart="419.57" />
    <vehicle id="veh_134" type="passenger" route="route_7" depart="420.67" />
    <vehicle id="veh_135" type="passenger" route="route_3" depart="422.85" />
    <vehicle id="veh_136" type="passenger" route="route_11" depart="429.35" />
    <vehicle id="veh_137" type="passenger" route="route_8" depart="431.49" />
    <vehicle id="veh_138" type="passenger" route="route_13" depart="431.85" />
    <vehicle id="veh_139" type="passenger" route="route_11" depart="433.92" />
    <vehicle id="veh_140" type="passenger" route="route_1" depart="434.59" />
    <vehicle id="veh_141" type="passenger" route="route_8" depart="435.47" />
    <vehicle id="veh_142" type="passenger" route="route_3" depart="437.35" />
    <vehicle id="veh_143" type="passenger" route="route_3" depart="438.47" />
    <vehicle id="veh_144" type="passenger" route="route_4" depart="439.24" />
    <vehicle id="veh_145" type="passenger" route="route_8" depart="439.52" />
    <vehicle id="veh_146" type="passenger" route="route_8" depart="446.24" />
    <vehicle id="veh_147" type="passenger" route="route_8" depart="448.91" />
    <vehicle id="veh_148" type="passenger" route="route_8" depart="449.02" />
    <vehicle id="veh_149" type="passenger" route="route_3" depart="449.72" />
    <vehicle id="veh_150" type="passenger" route="route_12" depart="450.34" />
    <vehicle id="veh_151" type="passenger" route="route_13" depart="450.87" />
    <vehicle id="veh_152" type="passenger" route="route_7" depart="455.40" />
    <vehicle id="veh_153" type="passenger" route="route_13" depart="456.23" />
    <vehicle id="veh_154" type="passenger" route="route_11" depart="457.61" />
    <vehicle id="veh_155" type="passenger" route="route_7" depart="457.65" />
    <vehicle id="veh_156" type="passenger" route="route_6" depart="457.98" />
    <vehicle id="veh_157" type="passenger" route="route_1" depart="459.91" />
    <vehicle id="veh_158" type="passenger" route="route_7" depart="460.49" />
    <vehicle id="veh_159" type="passenger" route="route_8" depart="466.61" />
    <vehicle id="veh_160" type="passenger" route="route_1" depart="472.08" />
    <vehicle id="veh_161" type="passenger" route="route_8" depart="474.28" />
    <vehicle id="veh_162" type="passenger" route="route_6" depart="475.75" />
    <vehicle id="veh_163" type="passenger" route="route_11" depart="477.07" />
    <vehicle id="veh_164" type="passenger" route="route_14" depart="477.61" />
    <vehicle id="veh_165" type="passenger" route="route_10" depart="479.86" />
    <vehicle id="veh_166" type="passenger" route="route_3" depart="481.11" />
    <vehicle id="veh_167" type="passenger" route="route_12" depart="484.84" />
    <vehicle id="veh_168" type="passenger" route="route_0" depart="485.14" />
    <vehicle id="veh_169" type="passenger" route="route_8" depart="488.47" />
    <vehicle id="veh_170" type="passenger" route="route_7" depart="488.67" />
    <vehicle id="veh_171" type="passenger" route="route_8" depart="489.56" />
    <vehicle id="veh_172" type="passenger" route="route_5" depart="496.40" />
    <vehicle id="veh_173" type="passenger" route="route_3" depart="499.81" />
    <vehicle id="veh_174" type="passenger" route="route_11" depart="500.00" />
    <vehicle id="veh_175" type="passenger" route="route_12" depart="500.58" />
    <vehicle id="veh_176" type="passenger" route="route_7" depart="504.97" />
    <vehicle id="veh_177" type="passenger" route="route_10" depart="511.18" />
    <vehicle id="veh_178" type="passenger" route="route_7" depart="513.19" />
    <vehicle id="veh_179" type="passenger" route="route_5" depart="523.36" />
    <vehicle id="veh_180" type="passenger" route="route_6" depart="526.19" />
    <vehicle id="veh_181" type="passenger" route="route_6" depart="526.48" />
    <vehicle id="veh_182" type="passenger" route="route_3" depart="526.49" />
    <vehicle id="veh_183" type="passenger" route="route_12" depart="526.54" />
    <vehicle id="veh_184" type="passenger" route="route_8" depart="531.52" />
    <vehicle id="veh_185" type="passenger" route="route_11" depart="535.24" />
    <vehicle id="veh_186" type="passenger" route="route_1" depart="539.06" />
    <vehicle id="veh_187" type="passenger" route="route_1" depart="539.75" />
    <vehicle id="veh_188" type="passenger" route="route_3" depart="542.26" />
    <vehicle id="veh_189" type="passenger" route="route_5" depart="542.69" />
    <vehicle id="veh_190" type="passenger" route="route_0" depart="546.10" />
    <vehicle id="veh_191" type="passenger" route="route_6" depart="549.57" />
    <vehicle id="veh_192" type="passenger" route="route_12" depart="552.00" />
    <vehicle id="veh_193" type="passenger" route="route_1" depart="552.00" />
    <vehicle id="veh_194" type="passenger" route="route_0" depart="553.97" />
    <vehicle id="veh_195" type="passenger" route="route_14" depart="554.66" />
    <vehicle id="veh_196" type="passenger" route="route_7" depart="555.03" />
    <vehicle id="veh_197" type="passenger" route="route_6" depart="556.89" />
    <vehicle id="veh_198" type="passenger" route="route_3" depart="565.10" />
    <vehicle id="veh_199" type="passenger" route="route_11" depart="567.89" />
    <vehicle id="veh_200" type="passenger" route="route_6" depart="568.00" />
    <vehicle id="veh_201" type="passenger" route="route_12" depart="568.15" />
    <vehicle id="veh_202" type="passenger" route="route_1" depart="569.62" />
    <vehicle id="veh_203" type="passenger" route="route_5" depart="582.21" />
    <vehicle id="veh_204" type="passenger" route="route_14" depart="582.76" />
    <vehicle id="veh_205" type="passenger" route="route_8" depart="583.26" />
    <vehicle id="veh_206" type="passenger" route="route_3" depart="584.24" />
    <vehicle id="veh_207" type="passenger" route="route_1" depart="585.44" />
    <vehicle id="veh_208" type="passenger" route="route_13" depart="585.89" />
    <vehicle id="veh_209" type="passenger" route="route_6" depart="588.37" />
    <vehicle id="veh_210" type="passenger" route="route_11" depart="590.44" />
    <vehicle id="veh_211" type="passenger" route="route_12" depart="591.98" />
    <vehicle id="veh_212" type="passenger" route="route_0" depart="596.32" />

    <!-- Segment 2: DIR_A_HEAVY (DIR_A=2.5x DIR_B=0.5x DIR_C=0.5x DIR_D=0.5x) | 600-1200s -->
    <vehicle id="veh_213" type="passenger" route="route_10" depart="601.83" />
    <vehicle id="veh_214" type="passenger" route="route_0" depart="610.38" />
    <vehicle id="veh_215" type="passenger" route="route_1" depart="611.71" />
    <vehicle id="veh_216" type="passenger" route="route_1" depart="618.45" />
    <vehicle id="veh_217" type="passenger" route="route_1" depart="620.46" />
    <vehicle id="veh_218" type="passenger" route="route_1" depart="620.81" />
    <vehicle id="veh_219" type="passenger" route="route_8" depart="624.82" />
    <vehicle id="veh_220" type="passenger" route="route_0" depart="628.36" />
    <vehicle id="veh_221" type="passenger" route="route_9" depart="631.45" />
    <vehicle id="veh_222" type="passenger" route="route_0" depart="632.51" />
    <vehicle id="veh_223" type="passenger" route="route_0" depart="633.53" />
    <vehicle id="veh_224" type="passenger" route="route_1" depart="635.09" />
    <vehicle id="veh_225" type="passenger" route="route_1" depart="638.14" />
    <vehicle id="veh_226" type="passenger" route="route_0" depart="641.53" />
    <vehicle id="veh_227" type="passenger" route="route_3" depart="642.14" />
    <vehicle id="veh_228" type="passenger" route="route_7" depart="642.78" />
    <vehicle id="veh_229" type="passenger" route="route_1" depart="643.26" />
    <vehicle id="veh_230" type="passenger" route="route_1" depart="645.27" />
    <vehicle id="veh_231" type="passenger" route="route_11" depart="647.79" />
    <vehicle id="veh_232" type="passenger" route="route_0" depart="648.23" />
    <vehicle id="veh_233" type="passenger" route="route_6" depart="648.54" />
    <vehicle id="veh_234" type="passenger" route="route_3" depart="649.70" />
    <vehicle id="veh_235" type="passenger" route="route_8" depart="651.87" />
    <vehicle id="veh_236" type="passenger" route="route_2" depart="652.05" />
    <vehicle id="veh_237" type="passenger" route="route_7" depart="655.13" />
    <vehicle id="veh_238" type="passenger" route="route_7" depart="663.46" />
    <vehicle id="veh_239" type="passenger" route="route_1" depart="673.90" />
    <vehicle id="veh_240" type="passenger" route="route_10" depart="675.50" />
    <vehicle id="veh_241" type="passenger" route="route_11" depart="676.70" />
    <vehicle id="veh_242" type="passenger" route="route_11" depart="676.91" />
    <vehicle id="veh_243" type="passenger" route="route_1" depart="680.82" />
    <vehicle id="veh_244" type="passenger" route="route_1" depart="684.45" />
    <vehicle id="veh_245" type="passenger" route="route_3" depart="686.89" />
    <vehicle id="veh_246" type="passenger" route="route_13" depart="687.22" />
    <vehicle id="veh_247" type="passenger" route="route_1" depart="691.59" />
    <vehicle id="veh_248" type="passenger" route="route_1" depart="693.06" />
    <vehicle id="veh_249" type="passenger" route="route_1" depart="696.21" />
    <vehicle id="veh_250" type="passenger" route="route_1" depart="701.99" />
    <vehicle id="veh_251" type="passenger" route="route_11" depart="702.61" />
    <vehicle id="veh_252" type="passenger" route="route_12" depart="705.09" />
    <vehicle id="veh_253" type="passenger" route="route_0" depart="705.33" />
    <vehicle id="veh_254" type="passenger" route="route_1" depart="706.07" />
    <vehicle id="veh_255" type="passenger" route="route_1" depart="706.50" />
    <vehicle id="veh_256" type="passenger" route="route_3" depart="708.04" />
    <vehicle id="veh_257" type="passenger" route="route_4" depart="713.12" />
    <vehicle id="veh_258" type="passenger" route="route_2" depart="715.93" />
    <vehicle id="veh_259" type="passenger" route="route_1" depart="716.00" />
    <vehicle id="veh_260" type="passenger" route="route_2" depart="721.16" />
    <vehicle id="veh_261" type="passenger" route="route_13" depart="721.95" />
    <vehicle id="veh_262" type="passenger" route="route_3" depart="722.50" />
    <vehicle id="veh_263" type="passenger" route="route_7" depart="725.30" />
    <vehicle id="veh_264" type="passenger" route="route_1" depart="727.44" />
    <vehicle id="veh_265" type="passenger" route="route_1" depart="735.15" />
    <vehicle id="veh_266" type="passenger" route="route_1" depart="737.10" />
    <vehicle id="veh_267" type="passenger" route="route_0" depart="737.16" />
    <vehicle id="veh_268" type="passenger" route="route_12" depart="745.22" />
    <vehicle id="veh_269" type="passenger" route="route_6" depart="750.65" />
    <vehicle id="veh_270" type="passenger" route="route_1" depart="751.01" />
    <vehicle id="veh_271" type="passenger" route="route_7" depart="751.12" />
    <vehicle id="veh_272" type="passenger" route="route_5" depart="751.26" />
    <vehicle id="veh_273" type="passenger" route="route_0" depart="752.85" />
    <vehicle id="veh_274" type="passenger" route="route_1" depart="754.93" />
    <vehicle id="veh_275" type="passenger" route="route_2" depart="757.21" />
    <vehicle id="veh_276" type="passenger" route="route_1" depart="765.39" />
    <vehicle id="veh_277" type="passenger" route="route_1" depart="768.92" />
    <vehicle id="veh_278" type="passenger" route="route_13" depart="772.47" />
    <vehicle id="veh_279" type="passenger" route="route_3" depart="772.98" />
    <vehicle id="veh_280" type="passenger" route="route_13" depart="773.05" />
    <vehicle id="veh_281" type="passenger" route="route_13" depart="774.94" />
    <vehicle id="veh_282" type="passenger" route="route_0" depart="775.23" />
    <vehicle id="veh_283" type="passenger" route="route_6" depart="776.23" />
    <vehicle id="veh_284" type="passenger" route="route_13" depart="778.54" />
    <vehicle id="veh_285" type="passenger" route="route_1" depart="779.57" />
    <vehicle id="veh_286" type="passenger" route="route_0" depart="785.63" />
    <vehicle id="veh_287" type="passenger" route="route_0" depart="786.43" />
    <vehicle id="veh_288" type="passenger" route="route_12" depart="786.52" />
    <vehicle id="veh_289" type="passenger" route="route_3" depart="787.64" />
    <vehicle id="veh_290" type="passenger" route="route_8" depart="787.93" />
    <vehicle id="veh_291" type="passenger" route="route_8" depart="788.83" />
    <vehicle id="veh_292" type="passenger" route="route_12" depart="791.02" />
    <vehicle id="veh_293" type="passenger" route="route_0" depart="792.04" />
    <vehicle id="veh_294" type="passenger" route="route_0" depart="792.46" />
    <vehicle id="veh_295" type="passenger" route="route_1" depart="792.67" />
    <vehicle id="veh_296" type="passenger" route="route_0" depart="794.23" />
    <vehicle id="veh_297" type="passenger" route="route_12" depart="797.83" />
    <vehicle id="veh_298" type="passenger" route="route_3" depart="797.93" />
    <vehicle id="veh_299" type="passenger" route="route_7" depart="804.34" />
    <vehicle id="veh_300" type="passenger" route="route_1" depart="804.72" />
    <vehicle id="veh_301" type="passenger" route="route_13" depart="805.22" />
    <vehicle id="veh_302" type="passenger" route="route_3" depart="805.71" />
    <vehicle id="veh_303" type="passenger" route="route_6" depart="808.14" />
    <vehicle id="veh_304" type="passenger" route="route_1" depart="808.46" />
    <vehicle id="veh_305" type="passenger" route="route_10" depart="809.31" />
    <vehicle id="veh_306" type="passenger" route="route_13" depart="813.08" />
    <vehicle id="veh_307" type="passenger" route="route_1" depart="818.16" />
    <vehicle id="veh_308" type="passenger" route="route_3" depart="823.15" />
    <vehicle id="veh_309" type="passenger" route="route_11" depart="825.46" />
    <vehicle id="veh_310" type="passenger" route="route_1" depart="833.28" />
    <vehicle id="veh_311" type="passenger" route="route_7" depart="836.67" />
    <vehicle id="veh_312" type="passenger" route="route_2" depart="840.89" />
    <vehicle id="veh_313" type="passenger" route="route_12" depart="843.14" />
    <vehicle id="veh_314" type="passenger" route="route_1" depart="849.86" />
    <vehicle id="veh_315" type="passenger" route="route_12" depart="851.07" />
    <vehicle id="veh_316" type="passenger" route="route_12" depart="851.12" />
    <vehicle id="veh_317" type="passenger" route="route_2" depart="851.44" />
    <vehicle id="veh_318" type="passenger" route="route_0" depart="851.49" />
    <vehicle id="veh_319" type="passenger" route="route_11" depart="857.36" />
    <vehicle id="veh_320" type="passenger" route="route_1" depart="860.12" />
    <vehicle id="veh_321" type="passenger" route="route_1" depart="861.30" />
    <vehicle id="veh_322" type="passenger" route="route_0" depart="870.18" />
    <vehicle id="veh_323" type="passenger" route="route_1" depart="874.92" />
    <vehicle id="veh_324" type="passenger" route="route_2" depart="877.32" />
    <vehicle id="veh_325" type="passenger" route="route_0" depart="887.41" />
    <vehicle id="veh_326" type="passenger" route="route_1" depart="888.62" />
    <vehicle id="veh_327" type="passenger" route="route_7" depart="889.27" />
    <vehicle id="veh_328" type="passenger" route="route_0" depart="889.74" />
    <vehicle id="veh_329" type="passenger" route="route_3" depart="892.71" />
    <vehicle id="veh_330" type="passenger" route="route_1" depart="896.69" />
    <vehicle id="veh_331" type="passenger" route="route_2" depart="902.10" />
    <vehicle id="veh_332" type="passenger" route="route_4" depart="903.09" />
    <vehicle id="veh_333" type="passenger" route="route_10" depart="904.69" />
    <vehicle id="veh_334" type="passenger" route="route_1" depart="905.15" />
    <vehicle id="veh_335" type="passenger" route="route_1" depart="906.70" />
    <vehicle id="veh_336" type="passenger" route="route_0" depart="906.74" />
    <vehicle id="veh_337" type="passenger" route="route_12" depart="913.39" />
    <vehicle id="veh_338" type="passenger" route="route_1" depart="918.71" />
    <vehicle id="veh_339" type="passenger" route="route_12" depart="928.28" />
    <vehicle id="veh_340" type="passenger" route="route_1" depart="929.18" />
    <vehicle id="veh_341" type="passenger" route="route_1" depart="929.92" />
    <vehicle id="veh_342" type="passenger" route="route_13" depart="930.85" />
    <vehicle id="veh_343" type="passenger" route="route_1" depart="933.04" />
    <vehicle id="veh_344" type="passenger" route="route_1" depart="934.01" />
    <vehicle id="veh_345" type="passenger" route="route_0" depart="942.19" />
    <vehicle id="veh_346" type="passenger" route="route_1" depart="943.24" />
    <vehicle id="veh_347" type="passenger" route="route_0" depart="948.41" />
    <vehicle id="veh_348" type="passenger" route="route_5" depart="948.72" />
    <vehicle id="veh_349" type="passenger" route="route_1" depart="965.26" />
    <vehicle id="veh_350" type="passenger" route="route_3" depart="975.66" />
    <vehicle id="veh_351" type="passenger" route="route_1" depart="985.29" />
    <vehicle id="veh_352" type="passenger" route="route_3" depart="988.55" />
    <vehicle id="veh_353" type="passenger" route="route_1" depart="990.35" />
    <vehicle id="veh_354" type="passenger" route="route_10" depart="991.01" />
    <vehicle id="veh_355" type="passenger" route="route_7" depart="991.58" />
    <vehicle id="veh_356" type="passenger" route="route_1" depart="992.76" />
    <vehicle id="veh_357" type="passenger" route="route_1" depart="993.74" />
    <vehicle id="veh_358" type="passenger" route="route_0" depart="997.29" />
    <vehicle id="veh_359" type="passenger" route="route_0" depart="999.38" />
    <vehicle id="veh_360" type="passenger" route="route_3" depart="1009.22" />
    <vehicle id="veh_361" type="passenger" route="route_1" depart="1009.89" />
    <vehicle id="veh_362" type="passenger" route="route_11" depart="1010.74" />
    <vehicle id="veh_363" type="passenger" route="route_3" depart="1012.30" />
    <vehicle id="veh_364" type="passenger" route="route_12" depart="1014.39" />
    <vehicle id="veh_365" type="passenger" route="route_0" depart="1014.47" />
    <vehicle id="veh_366" type="passenger" route="route_8" depart="1015.08" />