<?xml version="1.0" encoding="UTF-8"?>
<!-- Auto-generated Traffic Pattern Library -->
<!-- Total Duration: 27000s (7.5 hours) -->
<!-- Network: f.net.xml -->
<routes>
    <vType id="passenger" accel="0.8" decel="4.5" length="5.0" minGap="2.5" maxSpeed="13.89" vClass="passenger" speedFactor="1.0" speedDev="0.1" jmIgnoreJunctionFoeProb="1.0" jmIgnoreKeepClearTime="-1" />

    <route id="route_0" edges="-8084132#0 53365275#1" />
    <route id="route_1" edges="-8084132#0 -155190261#4" />
    <route id="route_2" edges="155190261#4 53365281#1" />
    <route id="route_3" edges="155190261#4 8084132#0" />
    <route id="route_4" edges="155190261#4 53365275#1" />
    <route id="route_5" edges="288762497#0 -155190261#4" />
    <route id="route_6" edges="288762497#0 53365281#1" />
    <route id="route_7" edges="288762497#0 53365281#1" />
    <route id="route_8" edges="288762497#0 53365281#1" />
    <route id="route_9" edges="288762497#0 8084132#0" />
    <route id="route_10" edges="4685638#1 8084132#0" />
    <route id="route_11" edges="4685638#1 53365275#1" />
    <route id="route_12" edges="4685638#1 53365275#1" />
    <route id="route_13" edges="4685638#1 53365275#1" />
    <route id="route_14" edges="4685638#1 -155190261#4" />


    <!-- Segment 1: BALANCED (DIR_A=1.0x DIR_B=1.0x DIR_C=1.0x DIR_D=1.0x) | 0-1800s -->
    <vehicle id="veh_0" type="passenger" route="route_0" depart="1.84" />
    <vehicle id="veh_1" type="passenger" route="route_3" depart="2.42" />
    <vehicle id="veh_2" type="passenger" route="route_10" depart="4.82" />
    <vehicle id="veh_3" type="passenger" route="route_1" depart="8.82" />
    <vehicle id="veh_4" type="passenger" route="route_0" depart="9.81" />
    <vehicle id="veh_5" type="passenger" route="route_7" depart="10.26" />
    <vehicle id="veh_6" type="passenger" route="route_3" depart="10.30" />
    <vehicle id="veh_7" type="passenger" route="route_8" depart="12.19" />
    <vehicle id="veh_8" type="passenger" route="route_8" depart="12.64" />
    <vehicle id="veh_9" type="passenger" route="route_0" depart="15.62" />
    <vehicle id="veh_10" type="passenger" route="route_11" depart="18.58" />
    <vehicle id="veh_11" type="passenger" route="route_2" depart="19.32" />
    <vehicle id="veh_12" type="passenger" route="route_6" depart="25.00" />
    <vehicle id="veh_13" type="passenger" route="route_1" depart="25.17" />
    <vehicle id="veh_14" type="passenger" route="route_8" depart="28.56" />
    <vehicle id="veh_15" type="passenger" route="route_11" depart="31.52" />
    <vehicle id="veh_16" type="passenger" route="route_13" depart="32.90" />
    <vehicle id="veh_17" type="passenger" route="route_8" depart="33.76" />
    <vehicle id="veh_18" type="passenger" route="route_8" depart="36.94" />
    <vehicle id="veh_19" type="passenger" route="route_8" depart="40.50" />
    <vehicle id="veh_20" type="passenger" route="route_1" depart="42.70" />
    <vehicle id="veh_21" type="passenger" route="route_4" depart="43.16" />
    <vehicle id="veh_22" type="passenger" route="route_3" depart="43.31" />
    <vehicle id="veh_23" type="passenger" route="route_4" depart="43.50" />
    <vehicle id="veh_24" type="passenger" route="route_6" depart="45.32" />
    <vehicle id="veh_25" type="passenger" route="route_3" depart="46.15" />
    <vehicle id="veh_26" type="passenger" route="route_13" depart="46.71" />
    <vehicle id="veh_27" type="passenger" route="route_8" depart="48.59" />
    <vehicle id="veh_28" type="passenger" route="route_11" depart="48.93" />
    <vehicle id="veh_29" type="passenger" route="route_6" depart="49.25" />
    <vehicle id="veh_30" type="passenger" route="route_9" depart="57.46" />
    <vehicle id="veh_31" type="passenger" route="route_10" depart="58.92" />
    <vehicle id="veh_32" type="passenger" route="route_11" depart="62.25" />
    <vehicle id="veh_33" type="passenger" route="route_0" depart="62.72" />
    <vehicle id="veh_34" type="passenger" route="route_3" depart="63.40" />
    <vehicle id="veh_35" type="passenger" route="route_13" depart="63.83" />
    <vehicle id="veh_36" type="passenger" route="route_5" depart="67.59" />
    <vehicle id="veh_37" type="passenger" route="route_6" depart="69.51" />
    <vehicle id="veh_38" type="passenger" route="route_7" depart="73.94" />
    <vehicle id="veh_39" type="passenger" route="route_3" depart="74.49" />
    <vehicle id="veh_40" type="passenger" route="route_3" depart="75.98" />
    <vehicle id="veh_41" type="passenger" route="route_13" depart="77.56" />
    <vehicle id="veh_42" type="passenger" route="route_3" depart="78.47" />
    <vehicle id="veh_43" type="passenger" route="route_7" depart="89.29" />
    <vehicle id="veh_44" type="passenger" route="route_1" depart="89.46" />
    <vehicle id="veh_45" type="passenger" route="route_9" depart="89.67" />
    <vehicle id="veh_46" type="passenger" route="route_6" depart="92.49" />
    <vehicle id="veh_47" type="passenger" route="route_6" depart="92.61" />
    <vehicle id="veh_48" type="passenger" route="route_8" depart="102.61" />
    <vehicle id="veh_49" type="passenger" route="route_12" depart="108.98" />
    <vehicle id="veh_50" type="passenger" route="route_11" depart="109.01" />
    <vehicle id="veh_51" type="passenger" route="route_8" depart="111.07" />
    <vehicle id="veh_52" type="passenger" route="route_9" depart="111.62" />
    <vehicle id="veh_53" type="passenger" route="route_7" depart="111.84" />
    <vehicle id="veh_54" type="passenger" route="route_13" depart="112.93" />
    <vehicle id="veh_55" type="passenger" route="route_3" depart="116.68" />
    <vehicle id="veh_56" type="passenger" route="route_3" depart="117.93" />
    <vehicle id="veh_57" type="passenger" route="route_12" depart="122.32" />
    <vehicle id="veh_58" type="passenger" route="route_9" depart="122.96" />
    <vehicle id="veh_59" type="passenger" route="route_2" depart="124.65" />
    <vehicle id="veh_60" type="passenger" route="route_8" depart="127.23" />
    <vehicle id="veh_61" type="passenger" route="route_8" depart="129.95" />
    <vehicle id="veh_62" type="passenger" route="route_5" depart="129.95" />
    <vehicle id="veh_63" type="passenger" route="route_13" depart="129.98" />
    <vehicle id="veh_64" type="passenger" route="route_12" depart="133.78" />
    <vehicle id="veh_65" type="passenger" route="route_1" depart="134.44" />
    <vehicle id="veh_66" type="passenger" route="route_13" depart="138.23" />
    <vehicle id="veh_67" type="passenger" route="route_7" depart="138.39" />
    <vehicle id="veh_68" type="passenger" route="route_11" depart="138.52" />
    <vehicle id="veh_69" type="passenger" route="route_1" depart="141.13" />
    <vehicle id="veh_70" type="passenger" route="route_8" depart="142.29" />
    <vehicle id="veh_71" type="passenger" route="route_12" depart="142.85" />
    <vehicle id="veh_72" type="passenger" route="route_3" depart="143.84" />
    <vehicle id="veh_73" type="passenger" route="route_11" depart="145.23" />
    <vehicle id="veh_74" type="passenger" route="route_5" depart="145.64" />
    <vehicle id="veh_75" type="passenger" route="route_10" depart="155.23" />
    <vehicle id="veh_76" type="passenger" route="route_7" depart="156.27" />
    <vehicle id="veh_77" type="passenger" route="route_3" depart="156.50" />
    <vehicle id="veh_78" type="passenger" route="route_8" depart="157.24" />
    <vehicle id="veh_79" type="passenger" route="route_3" depart="157.71" />
    <vehicle id="veh_80" type="passenger" route="route_9" depart="157.85" />
    <vehicle id="veh_81" type="passenger" route="route_13" depart="158.31" />
    <vehicle id="veh_82" type="passenger" route="route_1" depart="161.85" />
    <vehicle id="veh_83" type="passenger" route="route_10" depart="162.34" />
    <vehicle id="veh_84" type="passenger" route="route_1" depart="162.77" />
    <vehicle id="veh_85" type="passenger" route="route_8" depart="167.71" />
    <vehicle id="veh_86" type="passenger" route="route_12" depart="168.86" />
    <vehicle id="veh_87" type="passenger" route="route_3" depart="171.82" />
    <vehicle id="veh_88" type="passenger" route="route_6" depart="172.01" />
    <vehicle id="veh_89" type="passenger" route="route_7" depart="173.00" />
    <vehicle id="veh_90" type="passenger" route="route_10" depart="175.35" />
    <vehicle id="veh_91" type="passenger" route="route_1" depart="182.81" />
    <vehicle id="veh_92" type="passenger" route="route_6" depart="183.74" />
    <vehicle id="veh_93" type="passenger" route="route_3" depart="187.30" />
    <vehicle id="veh_94" type="passenger" route="route_7" depart="187.68" />
    <vehicle id="veh_95" type="passenger" route="route_4" depart="188.67" />
    <vehicle id="veh_96" type="passenger" route="route_13" depart="189.18" />
    <vehicle id="veh_97" type="passenger" route="route_12" depart="190.24" />
    <vehicle id="veh_98" type="passenger" route="route_1" depart="191.68" />
    <vehicle id="veh_99" type="passenger" route="route_12" depart="204.71" />
    <vehicle id="veh_100" type="passenger" route="route_13" depart="210.96" />
    <vehicle id="veh_101" type="passenger" route="route_2" depart="214.36" />
    <vehicle id="veh_102" type="passenger" route="route_3" depart="215.56" />
    <vehicle id="veh_103" type="passenger" route="route_1" depart="216.48" />
    <vehicle id="veh_104" type="passenger" route="route_14" depart="217.34" />
    <vehicle id="veh_105" type="passenger" route="route_12" depart="217.89" />
    <vehicle id="veh_106" type="passenger" route="route_6" depart="218.98" />
    <vehicle id="veh_107" type="passenger" route="route_14" depart="224.66" />
    <vehicle id="veh_108" type="passenger" route="route_11" depart="226.12" />
    <vehicle id="veh_109" type="passenger" route="route_5" depart="226.42" />
    <vehicle id="veh_110" type="passenger" route="route_8" depart="232.66" />
    <vehicle id="veh_111" type="passenger" route="route_11" depart="234.07" />
    <vehicle id="veh_112" type="passenger" route="route_8" depart="234.17" />
    <vehicle id="veh_113" type="passenger" route="route_12" depart="235.43" />
    <vehicle id="veh_114" type="passenger" route="route_13" depart="235.74" />
    <vehicle id="veh_115" type="passenger" route="route_3" depart="235.89" />
    <vehicle id="veh_116" type="passenger" route="route_10" depart="237.51" />
    <vehicle id="veh_117" type="passenger" route="route_1" depart="238.00" />
    <vehicle id="veh_118" type="passenger" route="route_3" depart="241.98" />
    <vehicle id="veh_119" type="passenger" route="route_8" depart="243.60" />
    <vehicle id="veh_120" type="passenger" route="route_8" depart="244.58" />
    <vehicle id="veh_121" type="passenger" route="route_13" depart="245.91" />
    <vehicle id="veh_122" type="passenger" route="route_11" depart="246.32" />
    <vehicle id="veh_123" type="passenger" route="route_6" depart="246.81" />
    <vehicle id="veh_124" type="passenger" route="route_5" depart="248.82" />
    <vehicle id="veh_125" type="passenger" route="route_11" depart="249.50" />
    <vehicle id="veh_126" type="passenger" route="route_7" depart="249.64" />
    <vehicle id="veh_127" type="passenger" route="route_14" depart="261.29" />
    <vehicle id="veh_128" type="passenger" route="route_3" depart="261.42" />
    <vehicle id="veh_129" type="passenger" route="route_13" depart="261.98" />
    <vehicle id="veh_130" type="passenger" route="route_12" depart="265.81" />
    <vehicle id="veh_131" type="passenger" route="route_2" depart="266.64" />
    <vehicle id="veh_132" type="passenger" route="route_11" depart="269.87" />
    <vehicle id="veh_133" type="passenger" route="route_14" depart="271.57" />
    <vehicle id="veh_134" type="passenger" route="route_0" depart="273.48" />
    <vehicle id="veh_135" type="passenger" route="route_5" depart="276.54" />
    <vehicle id="veh_136" type="passenger" route="route_13" depart="278.50" />
    <vehicle id="veh_137" type="passenger" route="route_1" depart="278.76" />
    <vehicle id="veh_138" type="passenger" route="route_8" depart="278.96" />
    <vehicle id="veh_139" type="passenger" route="route_8" depart="279.53" />
    <vehicle id="veh_140" type="passenger" route="route_3" depart="281.81" />
    <vehicle id="veh_141" type="passenger" route="route_3" depart="283.62" />
    <vehicle id="veh_142" type="passenger" route="route_13" depart="284.83" />
    <vehicle id="veh_143" type="passenger" route="route_1" depart="288.20" />
    <vehicle id="veh_144" type="passenger" route="route_4" depart="289.19" />
    <vehicle id="veh_145" type="passenger" route="route_11" depart="289.19" />
    <vehicle id="veh_146" type="passenger" route="route_3" depart="291.02" />
    <vehicle id="veh_147" type="passenger" route="route_8" depart="293.45" />
    <vehicle id="veh_148" type="passenger" route="route_0" depart="294.46" />
    <vehicle id="veh_149" type="passenger" route="route_13" depart="294.60" />
    <vehicle id="veh_150" type="passenger" route="route_8" depart="298.81" />
    <vehicle id="veh_151" type="passenger" route="route_8" depart="302.05" />
    <vehicle id="veh_152" type="passenger" route="route_1" depart="302.34" />
    <vehicle id="veh_153" type="passenger" route="route_13" depart="303.00" />
    <vehicle id="veh_154" type="passenger" route="route_12" depart="305.87" />
    <vehicle id="veh_155" type="passenger" route="route_3" depart="309.99" />
    <vehicle id="veh_156" type="passenger" route="route_1" depart="310.51" />
    <vehicle id="veh_157" type="passenger" route="route_13" depart="313.24" />
    <vehicle id="veh_158" type="passenger" route="route_8" depart="314.17" />
    <vehicle id="veh_159" type="passenger" route="route_13" depart="314.48" />
    <vehicle id="veh_160" type="passenger" route="route_14" depart="318.08" />
    <vehicle id="veh_161" type="passenger" route="route_13" depart="321.07" />
    <vehicle id="veh_162" type="passenger" route="route_11" depart="321.12" />
    <vehicle id="veh_163" type="passenger" route="route_13" depart="321.84" />
    <vehicle id="veh_164" type="passenger" route="route_12" depart="324.76" />
    <vehicle id="veh_165" type="passenger" route="route_3" depart="327.76" />
    <vehicle id="veh_166" type="passenger" route="route_1" depart="330.55" />
    <vehicle id="veh_167" type="passenger" route="route_12" depart="334.25" />
    <vehicle id="veh_168" type="passenger" route="route_12" depart="334.70" />
    <vehicle id="veh_169" type="passenger" route="route_5" depart="335.81" />
    <vehicle id="veh_170" type="passenger" route="route_3" depart="338.67" />
    <vehicle id="veh_171" type="passenger" route="route_3" depart="338.71" />
    <vehicle id="veh_172" type="passenger" route="route_12" depart="339.43" />
    <vehicle id="veh_173" type="passenger" route="route_4" depart="345.56" />
    <vehicle id="veh_174" type="passenger" route="route_6" depart="347.41" />
    <vehicle id="veh_175" type="passenger" route="route_8" depart="354.55" />
    <vehicle id="veh_176" type="passenger" route="route_1" depart="359.60" />
    <vehicle id="veh_177" type="passenger" route="route_3" depart="365.93" />
    <vehicle id="veh_178" type="passenger" route="route_3" depart="371.84" />
    <vehicle id="veh_179" type="passenger" route="route_7" depart="372.05" />
    <vehicle id="veh_180" type="passenger" route="route_5" depart="374.40" />
    <vehicle id="veh_181" type="passenger" route="route_7" depart="376.07" />
    <vehicle id="veh_182" type="passenger" route="route_8" depart="376.95" />
    <vehicle id="veh_183" type="passenger" route="route_11" depart="377.48" />
    <vehicle id="veh_184" type="passenger" route="route_13" depart="377.48" />
    <vehicle id="veh_185" type="passenger" route="route_11" depart="378.87" />
    <vehicle id="veh_186" type="passenger" route="route_10" depart="381.31" />
    <vehicle id="veh_187" type="passenger" route="route_1" depart="382.13" />
    <vehicle id="veh_188" type="passenger" route="route_5" depart="384.09" />
    <vehicle id="veh_189" type="passenger" route="route_12" depart="384.77" />
    <vehicle id="veh_190" type="passenger" route="route_5" depart="387.06" />
    <vehicle id="veh_191" type="passenger" route="route_6" depart="387.73" />
    <vehicle id="veh_192" type="passenger" route="route_4" depart="388.65" />
    <vehicle id="veh_193" type="passenger" route="route_6" depart="388.90" />
    <vehicle id="veh_194" type="passenger" route="route_10" depart="393.97" />
    <vehicle id="veh_195" type="passenger" route="route_8" depart="398.17" />
    <vehicle id="veh_196" type="passenger" route="route_8" depart="398.81" />
    <vehicle id="veh_197" type="passenger" route="route_4" depart="398.81" />
    <vehicle id="veh_198" type="passenger" route="route_8" depart="399.83" />
    <vehicle id="veh_199" type="passenger" route="route_7" depart="401.74" />
    <vehicle id="veh_200" type="passenger" route="route_3" depart="402.79" />
    <vehicle id="veh_201" type="passenger" route="route_13" depart="403.94" />
    <vehicle id="veh_202" type="passenger" route="route_2" depart="406.81" />
    <vehicle id="veh_203" type="passenger" route="route_7" depart="406.96" />
    <vehicle id="veh_204" type="passenger" route="route_5" depart="408.77" />
    <vehicle id="veh_205" type="passenger" route="route_11" depart="411.84" />
    <vehicle id="veh_206" type="passenger" route="route_3" depart="413.85" />
    <vehicle id="veh_207" type="passenger" route="route_0" depart="414.25" />
    <vehicle id="veh_208" type="passenger" route="route_7" depart="414.76" />
    <vehicle id="veh_209" type="passenger" route="route_1" depart="418.17" />
    <vehicle id="veh_210" type="passenger" route="route_9" depart="419.13" />
    <vehicle id="veh_211" type="passenger" route="route_11" depart="419.52" />
    <vehicle id="veh_212" type="passenger" route="route_3" depart="420.75" />
    <vehicle id="veh_213" type="passenger" route="route_0" depart="422.67" />
    <vehicle id="veh_214" type="passenger" route="route_11" depart="425.17" />
    <vehicle id="veh_215" type="passenger" route="route_6" depart="425.37" />
    <vehicle id="veh_216" type="passenger" route="route_13" depart="425.72" />
    <vehicle id="veh_217" type="passenger" route="route_1" depart="427.04" />
    <vehicle id="veh_218" type="passenger" route="route_12" depart="427.55" />
    <vehicle id="veh_219" type="passenger" route="route_12" depart="428.65" />
    <vehicle id="veh_220" type="passenger" route="route_14" depart="430.63" />
    <vehicle id="veh_221" type="passenger" route="route_13" depart="432.26" />
    <vehicle id="veh_222" type="passenger" route="route_8" depart="436.26" />
    <vehicle id="veh_223" type="passenger" route="route_7" depart="438.54" />
    <vehicle id="veh_224" type="passenger" route="route_8" depart="441.74" />
    <vehicle id="veh_225" type="passenger" route="route_11" depart="445.83" />
    <vehicle id="veh_226" type="passenger" route="route_3" depart="446.99" />
    <vehicle id="veh_227" type="passenger" route="route_9" depart="447.50" />
    <vehicle id="veh_228" type="passenger" route="route_7" depart="450.12" />
    <vehicle id="veh_229" type="passenger" route="route_4" depart="451.89" />
    <vehicle id="veh_230" type="passenger" route="route_4" depart="452.04" />
    <vehicle id="veh_231" type="passenger" route="route_5" depart="452.61" />
    <vehicle id="veh_232" type="passenger" route="route_2" depart="454.01" />
    <vehicle id="veh_233" type="passenger" route="route_11" depart="454.48" />
    <vehicle id="veh_234" type="passenger" route="route_1" depart="456.68" />
    <vehicle id="veh_235" type="passenger" route="route_8" depart="457.63" />
    <vehicle id="veh_236" type="passenger" route="route_3" depart="458.59" />
    <vehicle id="veh_237" type="passenger" route="route_13" depart="459.58" />
    <vehicle id="veh_238" type="passenger" route="route_11" depart="461.15" />
    <vehicle id="veh_239" type="passenger" route="route_11" depart="464.65" />
    <vehicle id="veh_240" type="passenger" route="route_0" depart="465.51" />
    <vehicle id="veh_241" type="passenger" route="route_11" depart="466.29" />
    <vehicle id="veh_242" type="passenger" route="route_13" depart="469.75" />
    <vehicle id="veh_243" type="passenger" route="route_11" depart="470.73" />
    <vehicle id="veh_244" type="passenger" route="route_8" depart="472.15" />
    <vehicle id="veh_245" type="passenger" route="route_3" depart="472.60" />
    <vehicle id="veh_246" type="passenger" route="route_0" depart="473.63" />
    <vehicle id="veh_247" type="passenger" route="route_10" depart="474.37" />
    <vehicle id="veh_248" type="passenger" route="route_2" depart="475.30" />
    <vehicle id="veh_249" type="passenger" route="route_1" depart="476.43" />
    <vehicle id="veh_250" type="passenger" route="route_0" depart="478.19" />
    <vehicle id="veh_251" type="passenger" route="route_8" depart="479.09" />
    <vehicle id="veh_252" type="passenger" route="route_9" depart="479.14" />
    <vehicle id="veh_253" type="passenger" route="route_7" depart="479.40" />
    <vehicle id="veh_254" type="passenger" route="route_6" depart="479.49" />
    <vehicle id="veh_255" type="passenger" route="route_5" depart="479.92" />
    <vehicle id="veh_256" type="passenger" route="route_6" depart="482.50" />
    <vehicle id="veh_257" type="passenger" route="route_12" depart="485.01" />
    <vehicle id="veh_258" type="passenger" route="route_1" depart="485.53" />
    <vehicle id="veh_259" type="passenger" route="route_8" depart="485.57" />
    <vehicle id="veh_260" type="passenger" route="route_6" depart="502.29" />
    <vehicle id="veh_261" type="passenger" route="route_11" depart="504.18" />
    <vehicle id="veh_262" type="passenger" route="route_11" depart="506.08" />
    <vehicle id="veh_263" type="passenger" route="route_3" depart="511.46" />
    <vehicle id="veh_264" type="passenger" route="route_2" depart="511.50" />
    <vehicle id="veh_265" type="passenger" route="route_10" depart="511.74" />
    <vehicle id="veh_266" type="passenger" route="route_3" depart="513.23" />
    <vehicle id="veh_267" type="passenger" route="route_11" depart="515.40" />
    <vehicle id="veh_268" type="passenger" route="route_8" depart="515.73" />
    <vehicle id="veh_269" type="passenger" route="route_1" depart="518.21" />
    <vehicle id="veh_270" type="passenger" route="route_13" depart="521.29" />
    <vehicle id="veh_271" type="passenger" route="route_0" depart="521.49" />
    <vehicle id="veh_272" type="passenger" route="route_10" depart="522.17" />
    <vehicle id="veh_273" type="passenger" route="route_6" depart="527.88" />
    <vehicle id="veh_274" type="passenger" route="route_1" depart="530.14" />
    <vehicle id="veh_275" type="passenger" route="route_9" depart="532.25" />
    <vehicle id="veh_276" type="passenger" route="route_11" depart="532.44" />
    <vehicle id="veh_277" type="passenger" route="route_8" depart="535.86" />
    <vehicle id="veh_278" type="passenger" route="route_14" depart="536.10" />
    <vehicle id="veh_279" type="passenger" route="route_6" depart="538.84" />
    <vehicle id="veh_280" type="passenger" route="route_6" depart="539.85" />
    <vehicle id="veh_281" type="passenger" route="route_6" depart="541.12" />
    <vehicle id="veh_282" type="passenger" route="route_12" depart="544.53" />
    <vehicle id="veh_283" type="passenger" route="route_13" depart="544.73" />
    <vehicle id="veh_284" type="passenger" route="route_12" depart="546.55" />
    <vehicle id="veh_285" type="passenger" route="route_7" depart="548.76" />
    <vehicle id="veh_286" type="passenger" route="route_13" depart="551.14" />
    <vehicle id="veh_287" type="passenger" route="route_12" depart="551.71" />
    <vehicle id="veh_288" type="passenger" route="route_7" depart="553.10" />
    <vehicle id="veh_289" type="passenger" route="route_11" depart="554.13" />
    <vehicle id="veh_290" type="passenger" route="route_12" depart="554.69" />
    <vehicle id="veh_291" type="passenger" route="route_1" depart="557.89" />
    <vehicle id="veh_292" type="passenger" route="route_3" depart="561.73" />
    <vehicle id="veh_293" type="passenger" route="route_8" depart="562.85" />
    <vehicle id="veh_294" type="passenger" route="route_0" depart="563.71" />
    <vehicle id="veh_295" type="passenger" route="route_3" depart="567.14" />
    <vehicle id="veh_296" type="passenger" route="route_12" depart="567.57" />
    <vehicle id="veh_297" type="passenger" route="route_13" depart="568.31" />
    <vehicle id="veh_298" type="passenger" route="route_4" depart="570.49" />
    <vehicle id="veh_299" type="passenger" route="route_13" depart="570.51" />
    <vehicle id="veh_300" type="passenger" route="route_11" depart="570.67" />
    <vehicle id="veh_301" type="passenger" route="route_11" depart="571.88" />
    <vehicle id="veh_302" type="passenger" route="route_9" depart="573.99" />
    <vehicle id="veh_303" type="passenger" route="route_12" depart="575.20" />
    <vehicle id="veh_304" type="passenger" route="route_3" depart="575.38" />
    <vehicle id="veh_305" type="passenger" route="route_5" depart="577.50" />
    <vehicle id="veh_306" type="passenger" route="route_7" depart="579.06" />
    <vehicle id="veh_307" type="passenger" route="route_6" depart="580.43" />
    <vehicle id="veh_308" type="passenger" route="route_5" depart="582.89" />
    <vehicle id="veh_309" type="passenger" route="route_3" depart="585.08" />
    <vehicle id="veh_310" type="passenger" route="route_1" depart="585.60" />
    <vehicle id="veh_311" type="passenger" route="route_1" depart="585.98" />
    <vehicle id="veh_312" type="passenger" route="route_11" depart="587.37" />
    <vehicle id="veh_313" type="passenger" route="route_3" depart="587.73" />
    <vehicle id="veh_314" type="passenger" route="route_11" depart="588.93" />
    <vehicle id="veh_315" type="passenger" route="route_7" depart="595.69" />
    <vehicle id="veh_316" type="passenger" route="route_1" depart="596.28" />
    <vehicle id="veh_317" type="passenger" route="route_3" depart="596.67" />
    <vehicle id="veh_318" type="passenger" route="route_0" depart="597.03" />
    <vehicle id="veh_319" type="passenger" route="route_4" depart="598.40" />
    <vehicle id="veh_320" type="passenger" route="route_8" depart="604.99" />
    <vehicle id="veh_321" type="passenger" route="route_1" depart="607.14" />
    <vehicle id="veh_322" type="passenger" route="route_7" depart="610.80" />
    <vehicle id="veh_323" type="passenger" route="route_8" depart="614.51" />
    <vehicle id="veh_324" type="passenger" route="route_7" depart="615.65" />
    <vehicle id="veh_325" type="passenger" route="route_1" depart="616.01" />
    <vehicle id="veh_326" type="passenger" route="route_7" depart="621.11" />
    <vehicle id="veh_327" type="passenger" route="route_6" depart="624.22" />
    <vehicle id="veh_328" type="passenger" route="route_9" depart="624.36" />
    <vehicle id="veh_329" type="passenger" route="route_2" depart="624.46" />
    <vehicle id="veh_330" type="passenger" route="route_5" depart="625.95" />
    <vehicle id="veh_331" type="passenger" route="route_1" depart="635.13" />
    <vehicle id="veh_332" type="passenger" route="route_8" depart="637.73" />
    <vehicle id="veh_333" type="passenger" route="route_3" depart="640.55" />
    <vehicle id="veh_334" type="passenger" route="route_7" depart="641.88" />
    <vehicle id="veh_335" type="passenger" route="route_12" depart="642.93" />
    <vehicle id="veh_336" type="passenger" route="route_5" depart="651.23" />
    <vehicle id="veh_337" type="passenger" route="route_8" depart="652.97" />
    <vehicle id="veh_338" type="passenger" route="route_13" depart="655.40" />
    <vehicle id="veh_339" type="passenger" route="route_3" depart="655.82" />
    <vehicle id="veh_340" type="passenger" route="route_2" depart="657.76" />
    <vehicle id="veh_341" type="passenger" route="route_1" depart="658.11" />
    <vehicle id="veh_342" type="passenger" route="route_7" depart="658.11" />
    <vehicle id="veh_343" type="passenger" route="route_4" depart="659.73" />
    <vehicle id="veh_344" type="passenger" route="route_11" depart="660.21" />
    <vehicle id="veh_345" type="passenger" route="route_7" depart="662.39" />
    <vehicle id="veh_346" type="passenger" route="route_13" depart="664.48" />
    <vehicle id="veh_347" type="passenger" route="route_9" depart="667.27" />
    <vehicle id="veh_348" type="passenger" route="route_13" depart="669.22" />
    <vehicle id="veh_349" type="passenger" route="route_8" depart="670.22" />
    <vehicle id="veh_350" type="passenger" route="route_13" depart="672.10" />
    <vehicle id="veh_351" type="passenger" route="route_1" depart="675.25" />
    <vehicle id="veh_352" type="passenger" route="route_5" depart="675.58" />
    <vehicle id="veh_353" type="passenger" route="route_8" depart="678.07" />
    <vehicle id="veh_354" type="passenger" route="route_1" depart="678.68" />
    <vehicle id="veh_355" type="passenger" route="route_11" depart="680.78" />
    <vehicle id="veh_356" type="passenger" route="route_7" depart="685.92" />
    <vehicle id="veh_357" type="passenger" route="route_1" depart="687.15" />
    <vehicle id="veh_358" type="passenger" route="route_7" depart="687.22" />
    <vehicle id="veh_359" type="passenger" route="route_3" depart="687.92" />
    <vehicle id="veh_360" type="passenger" route="route_13" depart="688.10" />
    <vehicle id="veh_361" type="passenger" route="route_8" depart="691.35" />
    <vehicle id="veh_362" type="passenger" route="route_14" depart="696.77" />
    <vehicle id="veh_363" type="passenger" route="route_3" depart="698.78" />
    <vehicle id="veh_364" type="passenger" route="route_11" depart="698.85" />
    <vehicle id="veh_365" type="passenger" route="route_10" depart="700.00" />
    <vehicle id="veh_366" type="passenger" route="route_3" depart="704.46" />
    <vehicle id="veh_367" type="passenger" route="route_9" depart="706.04" />