<?xml version="1.0" encoding="UTF-8"?>
<!-- Auto-generated Traffic Pattern Library -->
<!-- Total Duration: 27000s (7.5 hours) -->
<!-- Network: f.net.xml -->
<routes>
    <vType id="passenger" accel="0.8" decel="4.5" length="5.0" minGap="2.5" maxSpeed="13.89" vClass="passenger" />

    <route id="route_0" edges="-8084132#0 53365275#1" />
    <route id="route_1" edges="-8084132#0 -155190261#4" />
    <route id="route_2" edges="155190261#4 53365281#1" />
    <route id="route_3" edges="155190261#4 8084132#0" />
    <route id="route_4" edges="155190261#4 53365275#1" />
    <route id="route_5" edges="288762497#0 -155190261#4" />
    <route id="route_6" edges="288762497#0 53365281#1" />
    <route id="route_7" edges="288762497#0 53365281#1" />
    <route id="route_8" edges="288762497#0 53365281#1" />
    <route id="route_9" edges="288762497#0 8084132#0" />
    <route id="route_10" edges="4685638#1 8084132#0" />
    <route id="route_11" edges="4685638#1 53365275#1" />
    <route id="route_12" edges="4685638#1 53365275#1" />
    <route id="route_13" edges="4685638#1 53365275#1" />
    <route id="route_14" edges="4685638#1 -155190261#4" />


    <!-- Segment 1: BALANCED (DIR_A=1.0x DIR_B=1.0x DIR_C=1.0x DIR_D=1.0x) | 0-1800s -->
    <vehicle id="veh_0" type="passenger" route="route_0" depart="3.06" />
    <vehicle id="veh_1" type="passenger" route="route_3" depart="4.03" />
    <vehicle id="veh_2" type="passenger" route="route_10" depart="8.03" />
    <vehicle id="veh_3" type="passenger" route="route_1" depart="14.71" />
    <vehicle id="veh_4" type="passenger" route="route_0" depart="16.35" />
    <vehicle id="veh_5" type="passenger" route="route_7" depart="17.09" />
    <vehicle id="veh_6" type="passenger" route="route_3" depart="17.17" />
    <vehicle id="veh_7" type="passenger" route="route_8" depart="20.32" />
    <vehicle id="veh_8" type="passenger" route="route_8" depart="21.07" />
    <vehicle id="veh_9" type="passenger" route="route_0" depart="26.04" />
    <vehicle id="veh_10" type="passenger" route="route_11" depart="30.96" />
    <vehicle id="veh_11" type="passenger" route="route_2" depart="32.21" />
    <vehicle id="veh_12" type="passenger" route="route_6" depart="41.66" />
    <vehicle id="veh_13" type="passenger" route="route_1" depart="41.95" />
    <vehicle id="veh_14" type="passenger" route="route_8" depart="47.59" />
    <vehicle id="veh_15" type="passenger" route="route_11" depart="52.53" />
    <vehicle id="veh_16" type="passenger" route="route_13" depart="54.84" />
    <vehicle id="veh_17" type="passenger" route="route_8" depart="56.26" />
    <vehicle id="veh_18" type="passenger" route="route_8" depart="61.57" />
    <vehicle id="veh_19" type="passenger" route="route_8" depart="67.50" />
    <vehicle id="veh_20" type="passenger" route="route_1" depart="71.16" />
    <vehicle id="veh_21" type="passenger" route="route_4" depart="71.94" />
    <vehicle id="veh_22" type="passenger" route="route_3" depart="72.19" />
    <vehicle id="veh_23" type="passenger" route="route_4" depart="72.51" />
    <vehicle id="veh_24" type="passenger" route="route_6" depart="75.54" />
    <vehicle id="veh_25" type="passenger" route="route_3" depart="76.92" />
    <vehicle id="veh_26" type="passenger" route="route_13" depart="77.85" />
    <vehicle id="veh_27" type="passenger" route="route_8" depart="80.99" />
    <vehicle id="veh_28" type="passenger" route="route_11" depart="81.55" />
    <vehicle id="veh_29" type="passenger" route="route_6" depart="82.09" />
    <vehicle id="veh_30" type="passenger" route="route_9" depart="95.76" />
    <vehicle id="veh_31" type="passenger" route="route_10" depart="98.20" />
    <vehicle id="veh_32" type="passenger" route="route_11" depart="103.76" />
    <vehicle id="veh_33" type="passenger" route="route_0" depart="104.54" />
    <vehicle id="veh_34" type="passenger" route="route_3" depart="105.67" />
    <vehicle id="veh_35" type="passenger" route="route_13" depart="106.38" />
    <vehicle id="veh_36" type="passenger" route="route_5" depart="112.66" />
    <vehicle id="veh_37" type="passenger" route="route_6" depart="115.85" />
    <vehicle id="veh_38" type="passenger" route="route_7" depart="123.23" />
    <vehicle id="veh_39" type="passenger" route="route_3" depart="124.15" />
    <vehicle id="veh_40" type="passenger" route="route_3" depart="126.63" />
    <vehicle id="veh_41" type="passenger" route="route_13" depart="129.26" />
    <vehicle id="veh_42" type="passenger" route="route_3" depart="130.79" />
    <vehicle id="veh_43" type="passenger" route="route_7" depart="148.81" />
    <vehicle id="veh_44" type="passenger" route="route_1" depart="149.10" />
    <vehicle id="veh_45" type="passenger" route="route_9" depart="149.45" />
    <vehicle id="veh_46" type="passenger" route="route_6" depart="154.16" />
    <vehicle id="veh_47" type="passenger" route="route_6" depart="154.35" />
    <vehicle id="veh_48" type="passenger" route="route_8" depart="171.01" />
    <vehicle id="veh_49" type="passenger" route="route_12" depart="181.64" />
    <vehicle id="veh_50" type="passenger" route="route_11" depart="181.68" />
    <vehicle id="veh_51" type="passenger" route="route_8" depart="185.11" />
    <vehicle id="veh_52" type="passenger" route="route_9" depart="186.04" />
    <vehicle id="veh_53" type="passenger" route="route_7" depart="186.40" />
    <vehicle id="veh_54" type="passenger" route="route_13" depart="188.21" />
    <vehicle id="veh_55" type="passenger" route="route_3" depart="194.47" />
    <vehicle id="veh_56" type="passenger" route="route_3" depart="196.55" />
    <vehicle id="veh_57" type="passenger" route="route_12" depart="203.86" />
    <vehicle id="veh_58" type="passenger" route="route_9" depart="204.93" />
    <vehicle id="veh_59" type="passenger" route="route_2" depart="207.74" />
    <vehicle id="veh_60" type="passenger" route="route_8" depart="212.06" />
    <vehicle id="veh_61" type="passenger" route="route_8" depart="216.58" />
    <vehicle id="veh_62" type="passenger" route="route_5" depart="216.58" />
    <vehicle id="veh_63" type="passenger" route="route_13" depart="216.64" />
    <vehicle id="veh_64" type="passenger" route="route_12" depart="222.97" />
    <vehicle id="veh_65" type="passenger" route="route_1" depart="224.07" />
    <vehicle id="veh_66" type="passenger" route="route_13" depart="230.38" />
    <vehicle id="veh_67" type="passenger" route="route_7" depart="230.65" />
    <vehicle id="veh_68" type="passenger" route="route_11" depart="230.87" />
    <vehicle id="veh_69" type="passenger" route="route_1" depart="235.22" />
    <vehicle id="veh_70" type="passenger" route="route_8" depart="237.16" />
    <vehicle id="veh_71" type="passenger" route="route_12" depart="238.08" />
    <vehicle id="veh_72" type="passenger" route="route_3" depart="239.73" />
    <vehicle id="veh_73" type="passenger" route="route_11" depart="242.06" />
    <vehicle id="veh_74" type="passenger" route="route_5" depart="242.73" />
    <vehicle id="veh_75" type="passenger" route="route_10" depart="258.72" />
    <vehicle id="veh_76" type="passenger" route="route_7" depart="260.45" />
    <vehicle id="veh_77" type="passenger" route="route_3" depart="260.83" />
    <vehicle id="veh_78" type="passenger" route="route_8" depart="262.07" />
    <vehicle id="veh_79" type="passenger" route="route_3" depart="262.86" />
    <vehicle id="veh_80" type="passenger" route="route_9" depart="263.08" />
    <vehicle id="veh_81" type="passenger" route="route_13" depart="263.86" />
    <vehicle id="veh_82" type="passenger" route="route_1" depart="269.75" />
    <vehicle id="veh_83" type="passenger" route="route_10" depart="270.56" />
    <vehicle id="veh_84" type="passenger" route="route_1" depart="271.29" />
    <vehicle id="veh_85" type="passenger" route="route_8" depart="279.51" />
    <vehicle id="veh_86" type="passenger" route="route_12" depart="281.43" />
    <vehicle id="veh_87" type="passenger" route="route_3" depart="286.37" />
    <vehicle id="veh_88" type="passenger" route="route_6" depart="286.68" />
    <vehicle id="veh_89" type="passenger" route="route_7" depart="288.33" />
    <vehicle id="veh_90" type="passenger" route="route_10" depart="292.25" />
    <vehicle id="veh_91" type="passenger" route="route_1" depart="304.69" />
    <vehicle id="veh_92" type="passenger" route="route_6" depart="306.23" />
    <vehicle id="veh_93" type="passenger" route="route_3" depart="312.17" />
    <vehicle id="veh_94" type="passenger" route="route_7" depart="312.80" />
    <vehicle id="veh_95" type="passenger" route="route_4" depart="314.44" />
    <vehicle id="veh_96" type="passenger" route="route_13" depart="315.30" />
    <vehicle id="veh_97" type="passenger" route="route_12" depart="317.06" />
    <vehicle id="veh_98" type="passenger" route="route_1" depart="319.46" />
    <vehicle id="veh_99" type="passenger" route="route_12" depart="341.18" />
    <vehicle id="veh_100" type="passenger" route="route_13" depart="351.60" />
    <vehicle id="veh_101" type="passenger" route="route_2" depart="357.26" />
    <vehicle id="veh_102" type="passenger" route="route_3" depart="359.26" />
    <vehicle id="veh_103" type="passenger" route="route_1" depart="360.80" />
    <vehicle id="veh_104" type="passenger" route="route_14" depart="362.23" />
    <vehicle id="veh_105" type="passenger" route="route_12" depart="363.15" />
    <vehicle id="veh_106" type="passenger" route="route_6" depart="364.97" />
    <vehicle id="veh_107" type="passenger" route="route_14" depart="374.43" />
    <vehicle id="veh_108" type="passenger" route="route_11" depart="376.87" />
    <vehicle id="veh_109" type="passenger" route="route_5" depart="377.37" />
    <vehicle id="veh_110" type="passenger" route="route_8" depart="387.76" />
    <vehicle id="veh_111" type="passenger" route="route_11" depart="390.11" />
    <vehicle id="veh_112" type="passenger" route="route_8" depart="390.29" />
    <vehicle id="veh_113" type="passenger" route="route_12" depart="392.38" />
    <vehicle id="veh_114" type="passenger" route="route_13" depart="392.90" />
    <vehicle id="veh_115" type="passenger" route="route_3" depart="393.15" />
    <vehicle id="veh_116" type="passenger" route="route_10" depart="395.86" />
    <vehicle id="veh_117" type="passenger" route="route_1" depart="396.66" />
    <vehicle id="veh_118" type="passenger" route="route_3" depart="403.29" />
    <vehicle id="veh_119" type="passenger" route="route_8" depart="406.00" />
    <vehicle id="veh_120" type="passenger" route="route_8" depart="407.63" />
    <vehicle id="veh_121" type="passenger" route="route_13" depart="409.85" />
    <vehicle id="veh_122" type="passenger" route="route_11" depart="410.54" />
    <vehicle id="veh_123" type="passenger" route="route_6" depart="411.35" />
    <vehicle id="veh_124" type="passenger" route="route_5" depart="414.69" />
    <vehicle id="veh_125" type="passenger" route="route_11" depart="415.84" />
    <vehicle id="veh_126" type="passenger" route="route_7" depart="416.06" />
    <vehicle id="veh_127" type="passenger" route="route_14" depart="435.48" />
    <vehicle id="veh_128" type="passenger" route="route_3" depart="435.71" />
    <vehicle id="veh_129" type="passenger" route="route_13" depart="436.63" />
    <vehicle id="veh_130" type="passenger" route="route_12" depart="443.01" />
    <vehicle id="veh_131" type="passenger" route="route_2" depart="444.40" />
    <vehicle id="veh_132" type="passenger" route="route_11" depart="449.78" />
    <vehicle id="veh_133" type="passenger" route="route_14" depart="452.62" />
    <vehicle id="veh_134" type="passenger" route="route_0" depart="455.80" />
    <vehicle id="veh_135" type="passenger" route="route_5" depart="460.90" />
    <vehicle id="veh_136" type="passenger" route="route_13" depart="464.16" />
    <vehicle id="veh_137" type="passenger" route="route_1" depart="464.60" />
    <vehicle id="veh_138" type="passenger" route="route_8" depart="464.94" />
    <vehicle id="veh_139" type="passenger" route="route_8" depart="465.89" />
    <vehicle id="veh_140" type="passenger" route="route_3" depart="469.68" />
    <vehicle id="veh_141" type="passenger" route="route_3" depart="472.70" />
    <vehicle id="veh_142" type="passenger" route="route_13" depart="474.71" />
    <vehicle id="veh_143" type="passenger" route="route_1" depart="480.33" />
    <vehicle id="veh_144" type="passenger" route="route_4" depart="481.98" />
    <vehicle id="veh_145" type="passenger" route="route_11" depart="481.99" />
    <vehicle id="veh_146" type="passenger" route="route_3" depart="485.03" />
    <vehicle id="veh_147" type="passenger" route="route_8" depart="489.09" />
    <vehicle id="veh_148" type="passenger" route="route_0" depart="490.76" />
    <vehicle id="veh_149" type="passenger" route="route_13" depart="491.00" />
    <vehicle id="veh_150" type="passenger" route="route_8" depart="498.02" />
    <vehicle id="veh_151" type="passenger" route="route_8" depart="503.42" />
    <vehicle id="veh_152" type="passenger" route="route_1" depart="503.90" />
    <vehicle id="veh_153" type="passenger" route="route_13" depart="505.01" />
    <vehicle id="veh_154" type="passenger" route="route_12" depart="509.78" />
    <vehicle id="veh_155" type="passenger" route="route_3" depart="516.65" />
    <vehicle id="veh_156" type="passenger" route="route_1" depart="517.52" />
    <vehicle id="veh_157" type="passenger" route="route_13" depart="522.06" />
    <vehicle id="veh_158" type="passenger" route="route_8" depart="523.62" />
    <vehicle id="veh_159" type="passenger" route="route_13" depart="524.13" />
    <vehicle id="veh_160" type="passenger" route="route_14" depart="530.13" />
    <vehicle id="veh_161" type="passenger" route="route_13" depart="535.12" />
    <vehicle id="veh_162" type="passenger" route="route_11" depart="535.20" />
    <vehicle id="veh_163" type="passenger" route="route_13" depart="536.41" />
    <vehicle id="veh_164" type="passenger" route="route_12" depart="541.27" />
    <vehicle id="veh_165" type="passenger" route="route_3" depart="546.26" />
    <vehicle id="veh_166" type="passenger" route="route_1" depart="550.91" />
    <vehicle id="veh_167" type="passenger" route="route_12" depart="557.08" />
    <vehicle id="veh_168" type="passenger" route="route_12" depart="557.83" />
    <vehicle id="veh_169" type="passenger" route="route_5" depart="559.68" />
    <vehicle id="veh_170" type="passenger" route="route_3" depart="564.44" />
    <vehicle id="veh_171" type="passenger" route="route_3" depart="564.52" />
    <vehicle id="veh_172" type="passenger" route="route_12" depart="565.71" />
    <vehicle id="veh_173" type="passenger" route="route_4" depart="575.93" />
    <vehicle id="veh_174" type="passenger" route="route_6" depart="579.01" />
    <vehicle id="veh_175" type="passenger" route="route_8" depart="590.92" />
    <vehicle id="veh_176" type="passenger" route="route_1" depart="599.33" />
    <vehicle id="veh_177" type="passenger" route="route_3" depart="609.89" />
    <vehicle id="veh_178" type="passenger" route="route_3" depart="619.74" />
    <vehicle id="veh_179" type="passenger" route="route_7" depart="620.08" />
    <vehicle id="veh_180" type="passenger" route="route_5" depart="624.00" />
    <vehicle id="veh_181" type="passenger" route="route_7" depart="626.79" />
    <vehicle id="veh_182" type="passenger" route="route_8" depart="628.25" />
    <vehicle id="veh_183" type="passenger" route="route_11" depart="629.13" />
    <vehicle id="veh_184" type="passenger" route="route_13" depart="629.14" />
    <vehicle id="veh_185" type="passenger" route="route_11" depart="631.46" />
    <vehicle id="veh_186" type="passenger" route="route_10" depart="635.52" />
    <vehicle id="veh_187" type="passenger" route="route_1" depart="636.88" />
    <vehicle id="veh_188" type="passenger" route="route_5" depart="640.15" />
    <vehicle id="veh_189" type="passenger" route="route_12" depart="641.28" />
    <vehicle id="veh_190" type="passenger" route="route_5" depart="645.10" />
    <vehicle id="veh_191" type="passenger" route="route_6" depart="646.21" />
    <vehicle id="veh_192" type="passenger" route="route_4" depart="647.75" />
    <vehicle id="veh_193" type="passenger" route="route_6" depart="648.16" />
    <vehicle id="veh_194" type="passenger" route="route_10" depart="656.62" />
    <vehicle id="veh_195" type="passenger" route="route_8" depart="663.61" />
    <vehicle id="veh_196" type="passenger" route="route_8" depart="664.69" />
    <vehicle id="veh_197" type="passenger" route="route_4" depart="664.69" />
    <vehicle id="veh_198" type="passenger" route="route_8" depart="666.38" />
    <vehicle id="veh_199" type="passenger" route="route_7" depart="669.57" />
    <vehicle id="veh_200" type="passenger" route="route_3" depart="671.32" />
    <vehicle id="veh_201" type="passenger" route="route_13" depart="673.24" />
    <vehicle id="veh_202" type="passenger" route="route_2" depart="678.01" />
    <vehicle id="veh_203" type="passenger" route="route_7" depart="678.27" />
    <vehicle id="veh_204" type="passenger" route="route_5" depart="681.28" />
    <vehicle id="veh_205" type="passenger" route="route_11" depart="686.40" />
    <vehicle id="veh_206" type="passenger" route="route_3" depart="689.75" />
    <vehicle id="veh_207" type="passenger" route="route_0" depart="690.42" />
    <vehicle id="veh_208" type="passenger" route="route_7" depart="691.26" />
    <vehicle id="veh_209" type="passenger" route="route_1" depart="696.95" />
    <vehicle id="veh_210" type="passenger" route="route_9" depart="698.55" />
    <vehicle id="veh_211" type="passenger" route="route_11" depart="699.20" />
    <vehicle id="veh_212" type="passenger" route="route_3" depart="701.25" />
    <vehicle id="veh_213" type="passenger" route="route_0" depart="704.45" />
    <vehicle id="veh_214" type="passenger" route="route_11" depart="708.62" />
    <vehicle id="veh_215" type="passenger" route="route_6" depart="708.96" />
    <vehicle id="veh_216" type="passenger" route="route_13" depart="709.54" />
    <vehicle id="veh_217" type="passenger" route="route_1" depart="711.73" />
    <vehicle id="veh_218" type="passenger" route="route_12" depart="712.59" />
    <vehicle id="veh_219" type="passenger" route="route_12" depart="714.41" />
    <vehicle id="veh_220" type="passenger" route="route_14" depart="717.72" />
    <vehicle id="veh_221" type="passenger" route="route_13" depart="720.43" />
    <vehicle id="veh_222" type="passenger" route="route_8" depart="727.09" />
    <vehicle id="veh_223" type="passenger" route="route_7" depart="730.91" />
    <vehicle id="veh_224" type="passenger" route="route_8" depart="736.23" />
    <vehicle id="veh_225" type="passenger" route="route_11" depart="743.06" />
    <vehicle id="veh_226" type="passenger" route="route_3" depart="744.99" />
    <vehicle id="veh_227" type="passenger" route="route_9" depart="745.84" />
    <vehicle id="veh_228" type="passenger" route="route_7" depart="750.20" />
    <vehicle id="veh_229" type="passenger" route="route_4" depart="753.15" />
    <vehicle id="veh_230" type="passenger" route="route_4" depart="753.39" />
    <vehicle id="veh_231" type="passenger" route="route_5" depart="754.34" />
    <vehicle id="veh_232" type="passenger" route="route_2" depart="756.68" />
    <vehicle id="veh_233" type="passenger" route="route_11" depart="757.46" />
    <vehicle id="veh_234" type="passenger" route="route_1" depart="761.14" />
    <vehicle id="veh_235" type="passenger" route="route_8" depart="762.71" />
    <vehicle id="veh_236" type="passenger" route="route_3" depart="764.32" />
    <vehicle id="veh_237" type="passenger" route="route_13" depart="765.96" />
    <vehicle id="veh_238" type="passenger" route="route_11" depart="768.59" />
    <vehicle id="veh_239" type="passenger" route="route_11" depart="774.42" />
    <vehicle id="veh_240" type="passenger" route="route_0" depart="775.86" />
    <vehicle id="veh_241" type="passenger" route="route_11" depart="777.16" />
    <vehicle id="veh_242" type="passenger" route="route_13" depart="782.92" />
    <vehicle id="veh_243" type="passenger" route="route_11" depart="784.55" />
    <vehicle id="veh_244" type="passenger" route="route_8" depart="786.92" />
    <vehicle id="veh_245" type="passenger" route="route_3" depart="787.66" />
    <vehicle id="veh_246" type="passenger" route="route_0" depart="789.38" />
    <vehicle id="veh_247" type="passenger" route="route_10" depart="790.61" />
    <vehicle id="veh_248" type="passenger" route="route_2" depart="792.16" />
    <vehicle id="veh_249" type="passenger" route="route_1" depart="794.05" />
    <vehicle id="veh_250" type="passenger" route="route_0" depart="796.98" />
    <vehicle id="veh_251" type="passenger" route="route_8" depart="798.48" />
    <vehicle id="veh_252" type="passenger" route="route_9" depart="798.56" />
    <vehicle id="veh_253" type="passenger" route="route_7" depart="799.00" />
    <vehicle id="veh_254" type="passenger" route="route_6" depart="799.15" />
    <vehicle id="veh_255" type="passenger" route="route_5" depart="799.87" />
    <vehicle id="veh_256" type="passenger" route="route_6" depart="804.16" />
    <vehicle id="veh_257" type="passenger" route="route_12" depart="808.35" />
    <vehicle id="veh_258" type="passenger" route="route_1" depart="809.22" />
    <vehicle id="veh_259" type="passenger" route="route_8" depart="809.28" />
    <vehicle id="veh_260" type="passenger" route="route_6" depart="837.15" />
    <vehicle id="veh_261" type="passenger" route="route_11" depart="840.30" />
    <vehicle id="veh_262" type="passenger" route="route_11" depart="843.47" />
    <vehicle id="veh_263" type="passenger" route="route_3" depart="852.43" />
    <vehicle id="veh_264" type="passenger" route="route_2" depart="852.49" />
    <vehicle id="veh_265" type="passenger" route="route_10" depart="852.90" />
    <vehicle id="veh_266" type="passenger" route="route_3" depart="855.39" />
    <vehicle id="veh_267" type="passenger" route="route_11" depart="858.99" />
    <vehicle id="veh_268" type="passenger" route="route_8" depart="859.55" />
    <vehicle id="veh_269" type="passenger" route="route_1" depart="863.68" />
    <vehicle id="veh_270" type="passenger" route="route_13" depart="868.81" />
    <vehicle id="veh_271" type="passenger" route="route_0" depart="869.16" />
    <vehicle id="veh_272" type="passenger" route="route_10" depart="870.28" />
    <vehicle id="veh_273" type="passenger" route="route_6" depart="879.80" />
    <vehicle id="veh_274" type="passenger" route="route_1" depart="883.57" />
    <vehicle id="veh_275" type="passenger" route="route_9" depart="887.09" />
    <vehicle id="veh_276" type="passenger" route="route_11" depart="887.41" />
    <vehicle id="veh_277" type="passenger" route="route_8" depart="893.11" />
    <vehicle id="veh_278" type="passenger" route="route_14" depart="893.49" />
    <vehicle id="veh_279" type="passenger" route="route_6" depart="898.07" />
    <vehicle id="veh_280" type="passenger" route="route_6" depart="899.75" />
    <vehicle id="veh_281" type="passenger" route="route_6" depart="901.86" />
    <vehicle id="veh_282" type="passenger" route="route_12" depart="907.55" />
    <vehicle id="veh_283" type="passenger" route="route_13" depart="907.88" />
    <vehicle id="veh_284" type="passenger" route="route_12" depart="910.91" />
    <vehicle id="veh_285" type="passenger" route="route_7" depart="914.60" />
    <vehicle id="veh_286" type="passenger" route="route_13" depart="918.57" />
    <vehicle id="veh_287" type="passenger" route="route_12" depart="919.51" />
    <vehicle id="veh_288" type="passenger" route="route_7" depart="921.83" />
    <vehicle id="veh_289" type="passenger" route="route_11" depart="923.54" />
    <vehicle id="veh_290" type="passenger" route="route_12" depart="924.48" />
    <vehicle id="veh_291" type="passenger" route="route_1" depart="929.81" />
    <vehicle id="veh_292" type="passenger" route="route_3" depart="936.21" />
    <vehicle id="veh_293" type="passenger" route="route_8" depart="938.09" />
    <vehicle id="veh_294" type="passenger" route="route_0" depart="939.52" />
    <vehicle id="veh_295" type="passenger" route="route_3" depart="945.23" />
    <vehicle id="veh_296" type="passenger" route="route_12" depart="945.94" />
    <vehicle id="veh_297" type="passenger" route="route_13" depart="947.19" />
    <vehicle id="veh_298" type="passenger" route="route_4" depart="950.81" />
    <vehicle id="veh_299" type="passenger" route="route_13" depart="950.84" />
    <vehicle id="veh_300" type="passenger" route="route_11" depart="951.11" />
    <vehicle id="veh_301" type="passenger" route="route_11" depart="953.13" />
    <vehicle id="veh_302" type="passenger" route="route_9" depart="956.64" />
    <vehicle id="veh_303" type="passenger" route="route_12" depart="958.67" />
    <vehicle id="veh_304" type="passenger" route="route_3" depart="958.96" />
    <vehicle id="veh_305" type="passenger" route="route_5" depart="962.49" />
    <vehicle id="veh_306" type="passenger" route="route_7" depart="965.11" />
    <vehicle id="veh_307" type="passenger" route="route_6" depart="967.38" />
    <vehicle id="veh_308" type="passenger" route="route_5" depart="971.49" />
    <vehicle id="veh_309" type="passenger" route="route_3" depart="975.13" />
    <vehicle id="veh_310" type="passenger" route="route_1" depart="976.00" />
    <vehicle id="veh_311" type="passenger" route="route_1" depart="976.64" />
    <vehicle id="veh_312" type="passenger" route="route_11" depart="978.94" />
    <vehicle id="veh_313" type="passenger" route="route_3" depart="979.56" />
    <vehicle id="veh_314" type="passenger" route="route_11" depart="981.54" />
    <vehicle id="veh_315" type="passenger" route="route_7" depart="992.81" />
    <vehicle id="veh_316" type="passenger" route="route_1" depart="993.81" />
    <vehicle id="veh_317" type="passenger" route="route_3" depart="994.45" />
    <vehicle id="veh_318" type="passenger" route="route_0" depart="995.05" />
    <vehicle id="veh_319" type="passenger" route="route_4" depart="997.34" />
    <vehicle id="veh_320" type="passenger" route="route_8" depart="1008.32" />
    <vehicle id="veh_321" type="passenger" route="route_1" depart="1011.91" />
    <vehicle id="veh_322" type="passenger" route="route_7" depart="1017.99" />
    <vehicle id="veh_323" type="passenger" route="route_8" depart="1024.18" />
    <vehicle id="veh_324" type="passenger" route="route_7" depart="1026.08" />
    <vehicle id="veh_325" type="passenger" route="route_1" depart="1026.69" />
    <vehicle id="veh_326" type="passenger" route="route_7" depart="1035.18" />
    <vehicle id="veh_327" type="passenger" route="route_6" depart="1040.36" />
    <vehicle id="veh_328" type="passenger" route="route_9" depart="1040.59" />
    <vehicle id="veh_329" type="passenger" route="route_2" depart="1040.76" />
    <vehicle id="veh_330" type="passenger" route="route_5" depart="1043.24" />
    <vehicle id="veh_331" type="passenger" route="route_1" depart="1058.55" />
    <vehicle id="veh_332" type="passenger" route="route_8" depart="1062.89" />
    <vehicle id="veh_333" type="passenger" route="route_3" depart="1067.58" />
    <vehicle id="veh_334" type="passenger" route="route_7" depart="1069.80" />
    <vehicle id="veh_335" type="passenger" route="route_12" depart="1071.55" />
    <vehicle id="veh_336" type="passenger" route="route_5" depart="1085.38" />
    <vehicle id="veh_337" type="passenger" route="route_8" depart="1088.29" />
    <vehicle id="veh_338" type="passenger" route="route_13" depart="1092.33" />
    <vehicle id="veh_339" type="passenger" route="route_3" depart="1093.03" />
    <vehicle id="veh_340" type="passenger" route="route_2" depart="1096.27" />
    <vehicle id="veh_341" type="passenger" route="route_1" depart="1096.84" />
    <vehicle id="veh_342" type="passenger" route="route_7" depart="1096.85" />
    <vehicle id="veh_343" type="passenger" route="route_4" depart="1099.55" />
    <vehicle id="veh_344" type="passenger" route="route_11" depart="1100.34" />
    <vehicle id="veh_345" type="passenger" route="route_7" depart="1103.98" />
    <vehicle id="veh_346" type="passenger" route="route_13" depart="1107.47" />
    <vehicle id="veh_347" type="passenger" route="route_9" depart="1112.12" />
    <vehicle id="veh_348" type="passenger" route="route_13" depart="1115.37" />
    <vehicle id="veh_349" type="passenger" route="route_8" depart="1117.03" />
    <vehicle id="veh_350" type="passenger" route="route_13" depart="1120.16" />
    <vehicle id="veh_351" type="passenger" route="route_1" depart="1125.42" />
    <vehicle id="veh_352" type="passenger" route="route_5" depart="1125.96" />
    <vehicle id="veh_353" type="passenger" route="route_8" depart="1130.11" />
    <vehicle id="veh_354" type="passenger" route="route_1" depart="1131.13" />
    <vehicle id="veh_355" type="passenger" route="route_11" depart="1134.63" />
    <vehicle id="veh_356" type="passenger" route="route_7" depart="1143.21" />
    <vehicle id="veh_357" type="passenger" route="route_1" depart="1145.25" />
    <vehicle id="veh_358" type="passenger" route="route_7" depart="1145.37" />
    <vehicle id="veh_359" type="passenger" route="route_3" depart="1146.54" />
    <vehicle id="veh_360" type="passenger" route="route_13" depart="1146.83" />
    <vehicle id="veh_361" type="passenger" route="route_8" depart="1152.25" />
    <vehicle id="veh_362" type="passenger" route="route_14" depart="1161.28" />
    <vehicle id="veh_363" type="passenger" route="route_3" depart="1164.63" />
    <vehicle id="veh_364" type="passenger" route="route_11" depart="1164.75" />
    <vehicle id="veh_365" type="passenger" route="route_10" depart="1166.66" />
    <vehicle id="veh_366" type="passenger" route="route_3" depart="1174.10" />
    <vehicle id="veh_367" type="passenger" route="route_9" depart="1176.74" />