<?xml version="1.0" encoding="UTF-8"?>

<!-- generated on 2026-02-10T03:05:18.224661+01:00 by Eclipse SUMO netedit 1.25.0
<neteditConfiguration xmlns:xsi="http://www.w3.org/2001/XMLSchema-instance" xsi:noNamespaceSchemaLocation="http://sumo.dlr.de/xsd/neteditConfiguration.xsd">

    <input>
        <sumo-net-file value="/home/andrea/traffic-rl/scenarios/cross_dynamic/cross.net (Copia).xml"/>
    </input>

    <output>
        <output-file value="/home/andrea/traffic-rl/scenarios/cross_dynamic/cross.net (Copia).xml"/>
    </output>

    <processing>
        <geometry.min-radius.fix.railways value="false"/>
        <geometry.avoid-overlap value="false"/>
        <geometry.max-grade.fix value="false"/>
        <offset.disable-normalization value="true"/>
        <lefthand value="0"/>
    </processing>

    <junctions>
        <no-turnarounds value="true"/>
        <junctions.corner-detail value="5"/>
        <junctions.limit-turn-speed value="5.50"/>
        <rectangular-lane-cut value="0"/>
    </junctions>

    <pedestrian>
        <walkingareas value="0"/>
    </pedestrian>

</neteditConfiguration>
-->

<net version="1.20" junctionCornerDetail="5" limitTurnSpeed="5.50" avoidOverlap="0" xmlns:xsi="http://www.w3.org/2001/XMLSchema-instance" xsi:noNamespaceSchemaLocation="http://sumo.dlr.de/xsd/net_file.xsd">

    <location netOffset="200.00,200.00" convBoundary="0.00,0.00,400.00,400.00" origBoundary="-200.00,-200.00,200.00,200.00" projParameter="!"/>

    <edge id=":bottom_0" function="internal">
        <lane id=":bottom_0_0" index="0" speed="3.65" length="4.67" shape="198.40,0.00 199.20,-1.20 200.00,-1.60 200.80,-1.20 201.60,0.00"/>
    </edge>
    <edge id=":center_0" function="internal">
        <lane id=":center_0_0" index="0" speed="6.51" length="9.03" shape="195.20,210.40 194.85,207.95 193.80,206.20 192.05,205.15 189.60,204.80"/>
    </edge>
    <edge id=":center_1" function="internal">
        <lane id=":center_1_0" index="0" speed="13.89" length="20.80" shape="195.20,210.40 195.20,189.60"/>
    </edge>
    <edge id=":center_2" function="internal">
        <lane id=":center_2_0" index="0" speed="9.84" length="21.99" shape="198.40,210.40 199.15,203.75 201.40,199.00 205.15,196.15 210.40,195.20"/>
        <lane id=":center_2_1" index="1" speed="9.26" length="19.35" shape="198.40,210.40 199.15,205.15 201.40,201.40 205.15,199.15 210.40,198.40"/>
    </edge>
    <edge id=":center_4" function="internal">
        <lane id=":center_4_0" index="0" speed="6.51" length="9.03" shape="210.40,204.80 207.95,205.15 206.20,206.20 205.15,207.95 204.80,210.40"/>
    </edge>
    <edge id=":center_5" function="internal">
        <lane id=":center_5_0" index="0" speed="13.89" length="20.80" shape="210.40,204.80 189.60,204.80"/>
    </edge>
    <edge id=":center_6" function="internal">
        <lane id=":center_6_0" index="0" speed="9.84" length="21.99" shape="210.40,201.60 203.75,200.85 199.00,198.60 196.15,194.85 195.20,189.60"/>
        <lane id=":center_6_1" index="1" speed="9.26" length="19.35" shape="210.40,201.60 205.15,200.85 201.40,198.60 199.15,194.85 198.40,189.60"/>
    </edge>
    <edge id=":center_8" function="internal">
        <lane id=":center_8_0" index="0" speed="6.51" length="9.03" shape="204.80,189.60 205.15,192.05 206.20,193.80 207.95,194.85 210.40,195.20"/>
    </edge>
    <edge id=":center_9" function="internal">
        <lane id=":center_9_0" index="0" speed="13.89" length="20.80" shape="204.80,189.60 204.80,210.40"/>
    </edge>
    <edge id=":center_10" function="internal">
        <lane id=":center_10_0" index="0" speed="9.84" length="21.99" shape="201.60,189.60 200.85,196.25 198.60,201.00 194.85,203.85 189.60,204.80"/>
        <lane id=":center_10_1" index="1" speed="9.26" length="19.35" shape="201.60,189.60 200.85,194.85 198.60,198.60 194.85,200.85 189.60,201.60"/>
    </edge>
    <edge id=":center_12" function="internal">
        <lane id=":center_12_0" index="0" speed="6.51" length="9.03" shape="189.60,195.20 192.05,194.85 193.80,193.80 194.85,192.05 195.20,189.60"/>
    </edge>
    <edge id=":center_13" function="internal">
        <lane id=":center_13_0" index="0" speed="13.89" length="20.80" shape="189.60,195.20 210.40,195.20"/>
    </edge>
    <edge id=":center_14" function="internal">
        <lane id=":center_14_0" index="0" speed="9.84" length="21.99" shape="189.60,198.40 196.25,199.15 201.00,201.40 203.85,205.15 204.80,210.40"/>
        <lane id=":center_14_1" index="1" speed="9.26" length="19.35" shape="189.60,198.40 194.85,199.15 198.60,201.40 200.85,205.15 201.60,210.40"/>
    </edge>
    <edge id=":left_0" function="internal">
        <lane id=":left_0_0" index="0" speed="3.65" length="4.67" shape="0.00,201.60 -1.20,200.80 -1.60,200.00 -1.20,199.20 0.00,198.40"/>
    </edge>
    <edge id=":right_0" function="internal">
        <lane id=":right_0_0" index="0" speed="3.65" length="4.67" shape="400.00,198.40 401.20,199.20 401.60,200.00 401.20,200.80 400.00,201.60"/>
    </edge>
    <edge id=":top_0" function="internal">
        <lane id=":top_0_0" index="0" speed="3.65" length="4.67" shape="201.60,400.00 200.80,401.20 200.00,401.60 199.20,401.20 198.40,400.00"/>
    </edge>

    <edge id="b2c" from="bottom" to="center" priority="-1">
        <lane id="b2c_0" index="0" speed="13.89" length="189.60" shape="204.80,0.00 204.80,189.60"/>
        <lane id="b2c_1" index="1" speed="13.89" length="189.60" shape="201.60,0.00 201.60,189.60"/>
    </edge>
    <edge id="c2b" from="center" to="bottom" priority="-1">
        <lane id="c2b_0" index="0" speed="13.89" length="189.60" shape="195.20,189.60 195.20,0.00"/>
        <lane id="c2b_1" index="1" speed="13.89" length="189.60" shape="198.40,189.60 198.40,0.00"/>
    </edge>
    <edge id="c2l" from="center" to="left" priority="-1">
        <lane id="c2l_0" index="0" speed="13.89" length="189.60" shape="189.60,204.80 0.00,204.80"/>
        <lane id="c2l_1" index="1" speed="13.89" length="189.60" shape="189.60,201.60 0.00,201.60"/>
    </edge>
    <edge id="c2r" from="center" to="right" priority="-1">
        <lane id="c2r_0" index="0" speed="13.89" length="189.60" shape="210.40,195.20 400.00,195.20"/>
        <lane id="c2r_1" index="1" speed="13.89" length="189.60" shape="210.40,198.40 400.00,198.40"/>
    </edge>
    <edge id="c2t" from="center" to="top" priority="-1">
        <lane id="c2t_0" index="0" speed="13.89" length="189.60" shape="204.80,210.40 204.80,400.00"/>
        <lane id="c2t_1" index="1" speed="13.89" length="189.60" shape="201.60,210.40 201.60,400.00"/>
    </edge>
    <edge id="l2c" from="left" to="center" priority="-1">
        <lane id="l2c_0" index="0" speed="13.89" length="189.60" shape="0.00,195.20 189.60,195.20"/>
        <lane id="l2c_1" index="1" speed="13.89" length="189.60" shape="0.00,198.40 189.60,198.40"/>
    </edge>
    <edge id="r2c" from="right" to="center" priority="-1">
        <lane id="r2c_0" index="0" speed="13.89" length="189.60" shape="400.00,204.80 210.40,204.80"/>
        <lane id="r2c_1" index="1" speed="13.89" length="189.60" shape="400.00,201.60 210.40,201.60"/>
    </edge>
    <edge id="t2c" from="top" to="center" priority="-1">
        <lane id="t2c_0" index="0" speed="13.89" length="189.60" shape="195.20,400.00 195.20,210.40"/>
        <lane id="t2c_1" index="1" speed="13.89" length="189.60" shape="198.40,400.00 198.40,210.40"/>
    </edge>
    
    <tlLogic id="center" type="static" programID="custom" offset="0">
      <!-- NS: all movements -->
      <phase duration="30" state="ggggrrrrggggrrrr"/>
      <phase duration="3"  state="yyyyrrrryyyyrrrr"/>
      <!-- NS: left only -->
      <phase duration="15" state="rrggrrrrrrggrrrr"/>
      <phase duration="3"  state="rryyrrrrrryyrrrr"/>
      <phase duration="2"  state="rrrrrrrrrrrrrrrr"/>

      <!-- EW: all movements -->
      <phase duration="30" state="rrrrggggrrrrgggg"/>
      <phase duration="3"  state="rrrryyyyrrrryyyy"/>
      <!-- EW: left only -->
      <phase duration="15" state="rrrrrrggrrrrrrgg"/>
      <phase duration="3"  state="rrrrrryyrrrrrryy"/>
      <phase duration="2"  state="rrrrrrrrrrrrrrrr"/>
    </tlLogic>

    <junction id="bottom" type="priority" x="200.00" y="0.00" incLanes="c2b_0 c2b_1" intLanes=":bottom_0_0" shape="200.00,0.00 193.60,0.00 200.00,0.00">
        <request index="0" response="0" foes="0" cont="0"/>
    </junction>
    <junction id="center" type="traffic_light" x="200.00" y="200.00" incLanes="t2c_0 t2c_1 r2c_0 r2c_1 b2c_0 b2c_1 l2c_0 l2c_1" intLanes=":center_0_0 :center_1_0 :center_2_0 :center_2_1 :center_4_0 :center_5_0 :center_6_0 :center_6_1 :center_8_0 :center_9_0 :center_10_0 :center_10_1 :center_12_0 :center_13_0 :center_14_0 :center_14_1" shape="193.60,210.40 206.40,210.40 206.84,208.18 207.40,207.40 208.18,206.84 209.18,206.51 210.40,206.40 210.40,193.60 208.18,193.16 207.40,192.60 206.84,191.82 206.51,190.82 206.40,189.60 193.60,189.60 193.16,191.82 192.60,192.60 191.82,193.16 190.82,193.49 189.60,193.60 189.60,206.40 191.82,206.84 192.60,207.40 193.16,208.18 193.49,209.18">
        <request index="0"  response="0000000000000000" foes="0000110000100000" cont="0"/>
        <request index="1"  response="0000000000000000" foes="1111110011100000" cont="0"/>
        <request index="2"  response="0000001100000000" foes="1110011111100000" cont="0"/>
        <request index="3"  response="0000001100000000" foes="1110001111100000" cont="0"/>
        <request index="4"  response="0000001000000000" foes="1100001000000000" cont="0"/>
        <request index="5"  response="0000111000001111" foes="1100111000001111" cont="0"/>
        <request index="6"  response="0011111000001110" foes="0111111000001110" cont="0"/>
        <request index="7"  response="0011111000001110" foes="0011111000001110" cont="0"/>
        <request index="8"  response="0000000000000000" foes="0010000000001100" cont="0"/>
        <request index="9"  response="0000000000000000" foes="1110000011111100" cont="0"/>
        <request index="10" response="0000000000000111" foes="1110000011100111" cont="0"/>
        <request index="11" response="0000000000000011" foes="1110000011100011" cont="0"/>
        <request index="12" response="0000000000000010" foes="0000000011000010" cont="0"/>
        <request index="13" response="0000111100001110" foes="0000111111001110" cont="0"/>
        <request index="14" response="0000111001111110" foes="0000111001111110" cont="0"/>
        <request index="15" response="0000111000111110" foes="0000111000111110" cont="0"/>
    </junction>
    <junction id="left" type="priority" x="0.00" y="200.00" incLanes="c2l_0 c2l_1" intLanes=":left_0_0" shape="0.00,200.00 0.00,206.40 0.00,200.00">
        <request index="0" response="0" foes="0" cont="0"/>
    </junction>
    <junction id="right" type="priority" x="400.00" y="200.00" incLanes="c2r_0 c2r_1" intLanes=":right_0_0" shape="400.00,200.00 400.00,193.60 400.00,200.00">
        <request index="0" response="0" foes="0" cont="0"/>
    </junction>
    <junction id="top" type="priority" x="200.00" y="400.00" incLanes="c2t_0 c2t_1" intLanes=":top_0_0" shape="200.00,400.00 206.40,400.00 200.00,400.00">
        <request index="0" response="0" foes="0" cont="0"/>
    </junction>

    <connection from="b2c" to="c2r" fromLane="0" toLane="0" via=":center_8_0" tl="center" linkIndex="8" dir="r" state="O"/>
    <connection from="b2c" to="c2t" fromLane="0" toLane="0" via=":center_9_0" tl="center" linkIndex="9" dir="s" state="O"/>
    <connection from="b2c" to="c2l" fromLane="1" toLane="0" via=":center_10_0" tl="center" linkIndex="10" dir="l" state="o"/>
    <connection from="b2c" to="c2l" fromLane="1" toLane="1" via=":center_10_1" tl="center" linkIndex="11" dir="l" state="o"/>
    <connection from="c2b" to="b2c" fromLane="1" toLane="1" via=":bottom_0_0" dir="t" state="M"/>
    <connection from="c2l" to="l2c" fromLane="1" toLane="1" via=":left_0_0" dir="t" state="M"/>
    <connection from="c2r" to="r2c" fromLane="1" toLane="1" via=":right_0_0" dir="t" state="M"/>
    <connection from="c2t" to="t2c" fromLane="1" toLane="1" via=":top_0_0" dir="t" state="M"/>
    <connection from="l2c" to="c2b" fromLane="0" toLane="0" via=":center_12_0" tl="center" linkIndex="12" dir="r" state="o"/>
    <connection from="l2c" to="c2r" fromLane="0" toLane="0" via=":center_13_0" tl="center" linkIndex="13" dir="s" state="o"/>
    <connection from="l2c" to="c2t" fromLane="1" toLane="0" via=":center_14_0" tl="center" linkIndex="14" dir="l" state="o"/>
    <connection from="l2c" to="c2t" fromLane="1" toLane="1" via=":center_14_1" tl="center" linkIndex="15" dir="l" state="o"/>
    <connection from="r2c" to="c2t" fromLane="0" toLane="0" via=":center_4_0" tl="center" linkIndex="4" dir="r" state="o"/>
    <connection from="r2c" to="c2l" fromLane="0" toLane="0" via=":center_5_0" tl="center" linkIndex="5" dir="s" state="o"/>
    <connection from="r2c" to="c2b" fromLane="1" toLane="0" via=":center_6_0" tl="center" linkIndex="6" dir="l" state="o"/>
    <connection from="r2c" to="c2b" fromLane="1" toLane="1" via=":center_6_1" tl="center" linkIndex="7" dir="l" state="o"/>
    <connection from="t2c" to="c2l" fromLane="0" toLane="0" via=":center_0_0" tl="center" linkIndex="0" dir="r" state="O"/>
    <connection from="t2c" to="c2b" fromLane="0" toLane="0" via=":center_1_0" tl="center" linkIndex="1" dir="s" state="O"/>
    <connection from="t2c" to="c2r" fromLane="1" toLane="0" via=":center_2_0" tl="center" linkIndex="2" dir="l" state="o"/>
    <connection from="t2c" to="c2r" fromLane="1" toLane="1" via=":center_2_1" tl="center" linkIndex="3" dir="l" state="o"/>

    <connection from=":bottom_0" to="b2c" fromLane="0" toLane="1" dir="t" state="M"/>
    <connection from=":center_0" to="c2l" fromLane="0" toLane="0" dir="r" state="M"/>
    <connection from=":center_1" to="c2b" fromLane="0" toLane="0" dir="s" state="M"/>
    <connection from=":center_2" to="c2r" fromLane="0" toLane="0" dir="l" state="M"/>
    <connection from=":center_2" to="c2r" fromLane="1" toLane="1" dir="l" state="M"/>
    <connection from=":center_4" to="c2t" fromLane="0" toLane="0" dir="r" state="M"/>
    <connection from=":center_5" to="c2l" fromLane="0" toLane="0" dir="s" state="M"/>
    <connection from=":center_6" to="c2b" fromLane="0" toLane="0" dir="l" state="M"/>
    <connection from=":center_6" to="c2b" fromLane="1" toLane="1" dir="l" state="M"/>
    <connection from=":center_8" to="c2r" fromLane="0" toLane="0" dir="r" state="M"/>
    <connection from=":center_9" to="c2t" fromLane="0" toLane="0" dir="s" state="M"/>
    <connection from=":center_10" to="c2l" fromLane="0" toLane="0" dir="l" state="M"/>
    <connection from=":center_10" to="c2l" fromLane="1" toLane="1" dir="l" state="M"/>
    <connection from=":center_12" to="c2b" fromLane="0" toLane="0" dir="r" state="M"/>
    <connection from=":center_13" to="c2r" fromLane="0" toLane="0" dir="s" state="M"/>
    <connection from=":center_14" to="c2t" fromLane="0" toLane="0" dir="l" state="M"/>
    <connection from=":center_14" to="c2t" fromLane="1" toLane="1" dir="l" state="M"/>
    <connection from=":left_0" to="l2c" fromLane="0" toLane="1" dir="t" state="M"/>
    <connection from=":right_0" to="r2c" fromLane="0" toLane="1" dir="t" state="M"/>
    <connection from=":top_0" to="t2c" fromLane="0" toLane="1" dir="t" state="M"/>

</net>
