<configuration>
    <input>
        <net-file value="cross_turn.net.xml"/>
        <route-files value="eval.rou.xml"/>
    </input>
    <time>
        <begin value="0"/>
        <end value="16200"/>
    </time>
    <gui_only>
        <start value="true"/>
        <quit-on-end value="false"/>
    </gui_only>
</configuration>
