<?xml version="1.0" encoding="UTF-8"?>

<!-- generated on 2026-02-11T22:53:38.144779+01:00 by Eclipse SUMO netconvert 1.25.0
<netconvertConfiguration xmlns:xsi="http://www.w3.org/2001/XMLSchema-instance" xsi:noNamespaceSchemaLocation="http://sumo.dlr.de/xsd/netconvertConfiguration.xsd">

    <input>
        <sumo-net-file value="berlin-small.net.xml"/>
    </input>

    <output>
        <output-file value="b.net.xml"/>
    </output>

    <processing>
        <geometry.min-radius.fix.railways value="false"/>
        <geometry.avoid-overlap value="false"/>
        <geometry.max-grade.fix value="false"/>
        <offset.disable-normalization value="true"/>
        <lefthand value="0"/>
    </processing>

    <edge_removal>
        <keep-edges.in-boundary value="22224.58,16050.51,22417.99,15931.37"/>
    </edge_removal>

    <junctions>
        <no-turnarounds value="true"/>
        <junctions.corner-detail value="5"/>
        <junctions.limit-turn-speed value="5.50"/>
        <rectangular-lane-cut value="0"/>
    </junctions>

    <pedestrian>
        <walkingareas value="0"/>
    </pedestrian>

</netconvertConfiguration>
-->

<net version="1.20" junctionCornerDetail="5" limitTurnSpeed="5.50" avoidOverlap="0" xmlns:xsi="http://www.w3.org/2001/XMLSchema-instance" xsi:noNamespaceSchemaLocation="http://sumo.dlr.de/xsd/net_file.xsd">

    <location netOffset="-372355.98,-5804722.35" convBoundary="22132.66,15766.13,22547.25,16124.34" origBoundary="13.122591,52.383149,13.502221,52.618113" projParameter="+proj=utm +zone=33 +ellps=WGS84 +datum=WGS84 +units=m +no_defs"/>

    <type id="highway.primary" priority="12" numLanes="2" speed="27.78" disallow="tram rail_urban rail rail_electric rail_fast ship container cable_car subway aircraft wheelchair scooter drone" oneway="0"/>

    <edge id=":3483086927_0" function="internal">
        <lane id=":3483086927_0_0" index="0" disallow="tram rail_urban rail rail_electric rail_fast ship cable_car subway" speed="13.89" length="8.19" shape="22268.65,15948.76 22270.89,15949.55 22272.55,15949.73 22274.21,15949.89 22276.47,15950.64"/>
        <lane id=":3483086927_0_1" index="1" disallow="tram rail_urban rail rail_electric rail_fast ship cable_car subway" speed="13.89" length="8.19" shape="22267.27,15951.64 22269.52,15952.45 22271.19,15952.63 22272.88,15952.80 22275.15,15953.56"/>
        <lane id=":3483086927_0_2" index="2" disallow="tram rail_urban rail rail_electric rail_fast ship cable_car subway" speed="13.89" length="8.19" shape="22265.88,15954.53 22268.16,15955.34 22269.84,15955.53 22271.54,15955.71 22273.83,15956.47"/>
        <lane id=":3483086927_0_3" index="3" disallow="tram rail_urban rail rail_electric rail_fast ship cable_car subway" speed="13.89" length="8.19" shape="22265.88,15954.53 22267.95,15955.80 22269.18,15956.99 22270.42,15958.16 22272.51,15959.39"/>
    </edge>
    <edge id=":4549201081_0" function="internal">
        <lane id=":4549201081_0_0" index="0" disallow="tram rail_urban rail rail_electric rail_fast ship cable_car subway" speed="13.89" length="8.21" shape="22376.36,15931.32 22375.69,15933.63 22375.59,15935.32 22375.50,15937.01 22374.82,15939.33"/>
        <lane id=":4549201081_0_1" index="1" disallow="tram rail_urban rail rail_electric rail_fast ship cable_car subway" speed="13.89" length="8.21" shape="22373.40,15930.11 22372.73,15932.42 22372.63,15934.11 22372.53,15935.80 22371.86,15938.12"/>
        <lane id=":4549201081_0_2" index="2" disallow="tram rail_urban rail rail_electric rail_fast ship cable_car subway" speed="13.89" length="8.21" shape="22370.44,15928.90 22369.76,15931.21 22369.67,15932.90 22369.57,15934.59 22368.90,15936.91"/>
        <lane id=":4549201081_0_3" index="3" disallow="tram rail_urban rail rail_electric rail_fast ship cable_car subway" speed="13.89" length="8.21" shape="22370.44,15928.90 22369.30,15931.02 22368.19,15932.30 22367.07,15933.57 22365.93,15935.70"/>
    </edge>
    <edge id=":cluster_12614600_1860618754_1860618762_1860618778_1860618795_1860618797_1860618805_1860618824_1860618825_29270276_29270294_29270295_3649758678_3651880147_3657149480_3657636381_0" function="internal">
        <lane id=":cluster_12614600_1860618754_1860618762_1860618778_1860618795_1860618797_1860618805_1860618824_1860618825_29270276_29270294_29270295_3649758678_3651880147_3657149480_3657636381_0_0" index="0" disallow="tram rail_urban rail rail_electric rail_fast ship cable_car subway" speed="10.36" length="21.36" shape="22355.83,16023.49 22348.93,16021.21 22343.35,16020.63 22339.08,16021.75 22336.13,16024.56"/>
    </edge>
    <edge id=":cluster_12614600_1860618754_1860618762_1860618778_1860618795_1860618797_1860618805_1860618824_1860618825_29270276_29270294_29270295_3649758678_3651880147_3657149480_3657636381_1" function="internal">
        <lane id=":cluster_12614600_1860618754_1860618762_1860618778_1860618795_1860618797_1860618805_1860618824_1860618825_29270276_29270294_29270295_3649758678_3651880147_3657149480_3657636381_1_0" index="0" disallow="tram rail_urban rail rail_electric rail_fast ship cable_car subway" speed="13.89" length="61.85" shape="22357.13,16020.56 22301.08,15994.34"/>
        <lane id=":cluster_12614600_1860618754_1860618762_1860618778_1860618795_1860618797_1860618805_1860618824_1860618825_29270276_29270294_29270295_3649758678_3651880147_3657149480_3657636381_1_1" index="1" disallow="tram rail_urban rail rail_electric rail_fast ship cable_car subway" speed="13.89" length="61.85" shape="22358.44,16017.64 22302.44,15991.44"/>
    </edge>
    <edge id=":cluster_12614600_1860618754_1860618762_1860618778_1860618795_1860618797_1860618805_1860618824_1860618825_29270276_29270294_29270295_3649758678_3651880147_3657149480_3657636381_3" function="internal">
        <lane id=":cluster_12614600_1860618754_1860618762_1860618778_1860618795_1860618797_1860618805_1860618824_1860618825_29270276_29270294_29270295_3649758678_3651880147_3657149480_3657636381_3_0" index="0" disallow="tram rail_urban rail rail_electric rail_fast ship cable_car subway" speed="13.89" length="29.78" shape="22359.74,16014.72 22351.72,16007.31 22342.28,15993.77 22341.20,15991.67"/>
    </edge>
    <edge id=":cluster_12614600_1860618754_1860618762_1860618778_1860618795_1860618797_1860618805_1860618824_1860618825_29270276_29270294_29270295_3649758678_3651880147_3657149480_3657636381_18" function="internal">
        <lane id=":cluster_12614600_1860618754_1860618762_1860618778_1860618795_1860618797_1860618805_1860618824_1860618825_29270276_29270294_29270295_3649758678_3651880147_3657149480_3657636381_18_0" index="0" disallow="tram rail_urban rail rail_electric rail_fast ship cable_car subway" speed="13.89" length="23.63" shape="22341.20,15991.67 22334.90,15979.46 22333.05,15969.74"/>
    </edge>
    <edge id=":cluster_12614600_1860618754_1860618762_1860618778_1860618795_1860618797_1860618805_1860618824_1860618825_29270276_29270294_29270295_3649758678_3651880147_3657149480_3657636381_4" function="internal">
        <lane id=":cluster_12614600_1860618754_1860618762_1860618778_1860618795_1860618797_1860618805_1860618824_1860618825_29270276_29270294_29270295_3649758678_3651880147_3657149480_3657636381_4_0" index="0" disallow="tram rail_urban rail rail_electric rail_fast ship cable_car subway" speed="10.03" length="22.14" shape="22358.71,15979.16 22357.60,15984.49 22358.75,15989.17 22362.17,15993.19 22367.84,15996.56"/>
    </edge>
    <edge id=":cluster_12614600_1860618754_1860618762_1860618778_1860618795_1860618797_1860618805_1860618824_1860618825_29270276_29270294_29270295_3649758678_3651880147_3657149480_3657636381_5" function="internal">
        <lane id=":cluster_12614600_1860618754_1860618762_1860618778_1860618795_1860618797_1860618805_1860618824_1860618825_29270276_29270294_29270295_3649758678_3651880147_3657149480_3657636381_5_0" index="0" disallow="tram rail_urban rail rail_electric rail_fast ship cable_car subway" speed="13.89" length="50.11" shape="22358.71,15979.16 22353.20,15992.31 22347.65,16004.07 22341.98,16014.72 22336.13,16024.56"/>
        <lane id=":cluster_12614600_1860618754_1860618762_1860618778_1860618795_1860618797_1860618805_1860618824_1860618825_29270276_29270294_29270295_3649758678_3651880147_3657149480_3657636381_5_1" index="1" disallow="tram rail_urban rail rail_electric rail_fast ship cable_car subway" speed="13.89" length="50.11" shape="22355.71,15978.06 22350.24,15991.11 22344.79,16002.66 22339.23,16013.11 22333.42,16022.86"/>
        <lane id=":cluster_12614600_1860618754_1860618762_1860618778_1860618795_1860618797_1860618805_1860618824_1860618825_29270276_29270294_29270295_3649758678_3651880147_3657149480_3657636381_5_2" index="2" disallow="tram rail_urban rail rail_electric rail_fast ship cable_car subway" speed="13.89" length="50.11" shape="22352.70,15976.95 22347.28,15989.92 22341.93,16001.26 22336.47,16011.51 22330.71,16021.16"/>
    </edge>
    <edge id=":cluster_12614600_1860618754_1860618762_1860618778_1860618795_1860618797_1860618805_1860618824_1860618825_29270276_29270294_29270295_3649758678_3651880147_3657149480_3657636381_8" function="internal">
        <lane id=":cluster_12614600_1860618754_1860618762_1860618778_1860618795_1860618797_1860618805_1860618824_1860618825_29270276_29270294_29270295_3649758678_3651880147_3657149480_3657636381_8_0" index="0" disallow="tram rail_urban rail rail_electric rail_fast ship cable_car subway" speed="13.89" length="34.22" shape="22349.70,15975.85 22342.03,15988.73 22331.60,15995.62 22324.88,15996.08"/>
    </edge>
    <edge id=":cluster_12614600_1860618754_1860618762_1860618778_1860618795_1860618797_1860618805_1860618824_1860618825_29270276_29270294_29270295_3649758678_3651880147_3657149480_3657636381_19" function="internal">
        <lane id=":cluster_12614600_1860618754_1860618762_1860618778_1860618795_1860618797_1860618805_1860618824_1860618825_29270276_29270294_29270295_3649758678_3651880147_3657149480_3657636381_19_0" index="0" disallow="tram rail_urban rail rail_electric rail_fast ship cable_car subway" speed="13.89" length="23.25" shape="22324.88,15996.08 22318.40,15996.52 22302.44,15991.44"/>
    </edge>
    <edge id=":cluster_12614600_1860618754_1860618762_1860618778_1860618795_1860618797_1860618805_1860618824_1860618825_29270276_29270294_29270295_3649758678_3651880147_3657149480_3657636381_9" function="internal">
        <lane id=":cluster_12614600_1860618754_1860618762_1860618778_1860618795_1860618797_1860618805_1860618824_1860618825_29270276_29270294_29270295_3649758678_3651880147_3657149480_3657636381_9_0" index="0" disallow="tram rail_urban rail rail_electric rail_fast ship cable_car subway" speed="8.78" length="18.52" shape="22313.30,15968.10 22319.76,15970.71 22324.70,15971.67 22328.13,15970.98 22330.05,15968.64"/>
    </edge>
    <edge id=":cluster_12614600_1860618754_1860618762_1860618778_1860618795_1860618797_1860618805_1860618824_1860618825_29270276_29270294_29270295_3649758678_3651880147_3657149480_3657636381_10" function="internal">
        <lane id=":cluster_12614600_1860618754_1860618762_1860618778_1860618795_1860618797_1860618805_1860618824_1860618825_29270276_29270294_29270295_3649758678_3651880147_3657149480_3657636381_10_0" index="0" disallow="tram rail_urban rail rail_electric rail_fast ship cable_car subway" speed="13.89" length="61.57" shape="22313.30,15968.10 22367.84,15996.56"/>
        <lane id=":cluster_12614600_1860618754_1860618762_1860618778_1860618795_1860618797_1860618805_1860618824_1860618825_29270276_29270294_29270295_3649758678_3651880147_3657149480_3657636381_10_1" index="1" disallow="tram rail_urban rail rail_electric rail_fast ship cable_car subway" speed="13.89" length="61.57" shape="22311.95,15971.00 22366.54,15999.48"/>
        <lane id=":cluster_12614600_1860618754_1860618762_1860618778_1860618795_1860618797_1860618805_1860618824_1860618825_29270276_29270294_29270295_3649758678_3651880147_3657149480_3657636381_10_2" index="2" disallow="tram rail_urban rail rail_electric rail_fast ship cable_car subway" speed="13.89" length="61.57" shape="22310.60,15973.90 22365.24,16002.40"/>
    </edge>
    <edge id=":cluster_12614600_1860618754_1860618762_1860618778_1860618795_1860618797_1860618805_1860618824_1860618825_29270276_29270294_29270295_3649758678_3651880147_3657149480_3657636381_13" function="internal">
        <lane id=":cluster_12614600_1860618754_1860618762_1860618778_1860618795_1860618797_1860618805_1860618824_1860618825_29270276_29270294_29270295_3649758678_3651880147_3657149480_3657636381_13_0" index="0" disallow="tram rail_urban rail rail_electric rail_fast ship cable_car subway" speed="13.89" length="29.27" shape="22309.25,15976.81 22316.61,15984.35 22324.66,15997.75 22325.83,16000.62"/>
    </edge>
    <edge id=":cluster_12614600_1860618754_1860618762_1860618778_1860618795_1860618797_1860618805_1860618824_1860618825_29270276_29270294_29270295_3649758678_3651880147_3657149480_3657636381_20" function="internal">
        <lane id=":cluster_12614600_1860618754_1860618762_1860618778_1860618795_1860618797_1860618805_1860618824_1860618825_29270276_29270294_29270295_3649758678_3651880147_3657149480_3657636381_20_0" index="0" disallow="tram rail_urban rail rail_electric rail_fast ship cable_car subway" speed="13.89" length="21.44" shape="22325.83,16000.62 22330.37,16011.77 22330.71,16021.16"/>
    </edge>
    <edge id=":cluster_12614600_1860618754_1860618762_1860618778_1860618795_1860618797_1860618805_1860618824_1860618825_29270276_29270294_29270295_3649758678_3651880147_3657149480_3657636381_14" function="internal">
        <lane id=":cluster_12614600_1860618754_1860618762_1860618778_1860618795_1860618797_1860618805_1860618824_1860618825_29270276_29270294_29270295_3649758678_3651880147_3657149480_3657636381_14_0" index="0" disallow="tram rail_urban rail rail_electric rail_fast ship cable_car subway" speed="8.32" length="16.88" shape="22308.22,16007.06 22309.48,16003.54 22308.72,16000.24 22305.92,15997.18 22301.08,15994.34"/>
    </edge>
    <edge id=":cluster_12614600_1860618754_1860618762_1860618778_1860618795_1860618797_1860618805_1860618824_1860618825_29270276_29270294_29270295_3649758678_3651880147_3657149480_3657636381_15" function="internal">
        <lane id=":cluster_12614600_1860618754_1860618762_1860618778_1860618795_1860618797_1860618805_1860618824_1860618825_29270276_29270294_29270295_3649758678_3651880147_3657149480_3657636381_15_0" index="0" disallow="tram rail_urban rail rail_electric rail_fast ship cable_car subway" speed="13.89" length="44.86" shape="22310.93,16008.76 22317.92,15996.67 22323.18,15985.87 22327.10,15976.49 22330.05,15968.64"/>
        <lane id=":cluster_12614600_1860618754_1860618762_1860618778_1860618795_1860618797_1860618805_1860618824_1860618825_29270276_29270294_29270295_3649758678_3651880147_3657149480_3657636381_15_1" index="1" disallow="tram rail_urban rail rail_electric rail_fast ship cable_car subway" speed="13.89" length="44.86" shape="22313.64,16010.46 22320.67,15998.27 22326.04,15987.27 22330.06,15977.68 22333.05,15969.74"/>
    </edge>
    <edge id=":cluster_12614600_1860618754_1860618762_1860618778_1860618795_1860618797_1860618805_1860618824_1860618825_29270276_29270294_29270295_3649758678_3651880147_3657149480_3657636381_17" function="internal">
        <lane id=":cluster_12614600_1860618754_1860618762_1860618778_1860618795_1860618797_1860618805_1860618824_1860618825_29270276_29270294_29270295_3649758678_3651880147_3657149480_3657636381_17_0" index="0" disallow="tram rail_urban rail rail_electric rail_fast ship cable_car subway" speed="13.89" length="29.87" shape="22316.35,16012.16 22325.21,16002.30 22336.31,15997.39 22340.79,15997.40"/>
    </edge>
    <edge id=":cluster_12614600_1860618754_1860618762_1860618778_1860618795_1860618797_1860618805_1860618824_1860618825_29270276_29270294_29270295_3649758678_3651880147_3657149480_3657636381_21" function="internal">
        <lane id=":cluster_12614600_1860618754_1860618762_1860618778_1860618795_1860618797_1860618805_1860618824_1860618825_29270276_29270294_29270295_3649758678_3651880147_3657149480_3657636381_21_0" index="0" disallow="tram rail_urban rail rail_electric rail_fast ship cable_car subway" speed="13.89" length="25.22" shape="22340.79,15997.40 22349.65,15997.42 22365.24,16002.40"/>
    </edge>

    <edge id="288762496#0" from="1168825607" to="cluster_12614600_1860618754_1860618762_1860618778_1860618795_1860618797_1860618805_1860618824_1860618825_29270276_29270294_29270295_3649758678_3651880147_3657149480_3657636381" priority="12" type="highway.primary" spreadType="center" shape="22454.77,16059.23 22361.82,16020.77">
        <lane id="288762496#0_0" index="0" disallow="tram rail_urban rail rail_electric rail_fast ship cable_car subway" speed="13.89" length="104.96" shape="22452.93,16063.67 22355.83,16023.49"/>
        <lane id="288762496#0_1" index="1" disallow="tram rail_urban rail rail_electric rail_fast ship cable_car subway" speed="13.89" length="104.96" shape="22454.16,16060.71 22357.13,16020.56"/>
        <lane id="288762496#0_2" index="2" disallow="tram rail_urban rail rail_electric rail_fast ship cable_car subway" speed="13.89" length="104.96" shape="22455.38,16057.75 22358.44,16017.64"/>
        <lane id="288762496#0_3" index="3" disallow="tram rail_urban rail rail_electric rail_fast ship cable_car subway" speed="13.89" length="104.96" shape="22456.61,16054.79 22359.74,16014.72"/>
    </edge>
    <edge id="338616240" from="313467315" to="4549201081" priority="12" type="highway.primary" spreadType="center">
        <lane id="338616240_0" index="0" disallow="tram rail_urban rail rail_electric rail_fast ship cable_car subway" speed="13.89" length="49.33" shape="22395.00,15885.64 22376.36,15931.32"/>
        <lane id="338616240_1" index="1" disallow="tram rail_urban rail rail_electric rail_fast ship cable_car subway" speed="13.89" length="49.33" shape="22392.04,15884.43 22373.40,15930.11"/>
        <lane id="338616240_2" index="2" disallow="tram rail_urban rail rail_electric rail_fast ship cable_car subway" speed="13.89" length="49.33" shape="22389.08,15883.22 22370.44,15928.90"/>
        <param key="ref" value="B 96a"/>
    </edge>
    <edge id="341080389" from="3483086926" to="3483086927" priority="12" type="highway.primary" spreadType="center" shape="22215.94,15928.39 22242.88,15939.93 22270.86,15953.37">
        <lane id="341080389_0" index="0" disallow="tram rail_urban rail rail_electric rail_fast ship cable_car subway" speed="13.89" length="56.36" shape="22217.20,15925.45 22244.20,15937.02 22268.65,15948.76"/>
        <lane id="341080389_1" index="1" disallow="tram rail_urban rail rail_electric rail_fast ship cable_car subway" speed="13.89" length="56.36" shape="22215.94,15928.39 22242.88,15939.93 22267.27,15951.64"/>
        <lane id="341080389_2" index="2" disallow="tram rail_urban rail rail_electric rail_fast ship cable_car subway" speed="13.89" length="56.36" shape="22214.68,15931.33 22241.56,15942.84 22265.88,15954.53"/>
    </edge>
    <edge id="341080390" from="3483086927" to="cluster_12614600_1860618754_1860618762_1860618778_1860618795_1860618797_1860618805_1860618824_1860618825_29270276_29270294_29270295_3649758678_3651880147_3657149480_3657636381" priority="12" type="highway.primary" spreadType="center" shape="22270.86,15953.37 22275.74,15955.58 22280.51,15957.81 22306.77,15970.31">
        <lane id="341080390_0" index="0" disallow="tram rail_urban rail rail_electric rail_fast ship cable_car subway" speed="13.89" length="40.71" shape="22276.47,15950.64 22277.75,15951.22 22282.56,15953.47 22313.30,15968.10"/>
        <lane id="341080390_1" index="1" disallow="tram rail_urban rail rail_electric rail_fast ship cable_car subway" speed="13.89" length="40.71" shape="22275.15,15953.56 22276.41,15954.13 22281.19,15956.36 22311.95,15971.00"/>
        <lane id="341080390_2" index="2" disallow="tram rail_urban rail rail_electric rail_fast ship cable_car subway" speed="13.89" length="40.71" shape="22273.83,15956.47 22275.07,15957.03 22279.83,15959.26 22310.60,15973.90"/>
        <lane id="341080390_3" index="3" disallow="tram rail_urban rail rail_electric rail_fast ship cable_car subway" speed="13.89" length="40.71" shape="22272.51,15959.39 22273.73,15959.94 22278.46,15962.15 22309.25,15976.81"/>
    </edge>
    <edge id="38575179#0" from="2649686336" to="cluster_12614600_1860618754_1860618762_1860618778_1860618795_1860618797_1860618805_1860618824_1860618825_29270276_29270294_29270295_3649758678_3651880147_3657149480_3657636381" priority="12" type="highway.primary" spreadType="center" shape="22278.73,16061.77 22302.52,16025.17 22309.75,16013.65">
        <lane id="38575179#0_0" index="0" disallow="tram rail_urban rail rail_electric rail_fast ship cable_car subway" speed="13.89" length="62.02" shape="22274.71,16059.15 22298.47,16022.59 22308.22,16007.06"/>
        <lane id="38575179#0_1" index="1" disallow="tram rail_urban rail rail_electric rail_fast ship cable_car subway" speed="13.89" length="62.02" shape="22277.39,16060.90 22301.17,16024.31 22310.93,16008.76"/>
        <lane id="38575179#0_2" index="2" disallow="tram rail_urban rail rail_electric rail_fast ship cable_car subway" speed="13.89" length="62.02" shape="22280.07,16062.64 22303.87,16026.03 22313.64,16010.46"/>
        <lane id="38575179#0_3" index="3" disallow="tram rail_urban rail rail_electric rail_fast ship cable_car subway" speed="13.89" length="62.02" shape="22282.75,16064.39 22306.57,16027.75 22316.35,16012.16"/>
        <param key="ref" value="B 96a"/>
    </edge>
    <edge id="458998067#0" from="4549201081" to="cluster_12614600_1860618754_1860618762_1860618778_1860618795_1860618797_1860618805_1860618824_1860618825_29270276_29270294_29270295_3649758678_3651880147_3657149480_3657636381" priority="12" type="highway.primary" spreadType="center" shape="22371.89,15933.81 22359.08,15965.19 22355.08,15975.29">
        <lane id="458998067#0_0" index="0" disallow="tram rail_urban rail rail_electric rail_fast ship cable_car subway" speed="13.89" length="43.14" shape="22374.82,15939.33 22363.53,15966.98 22358.71,15979.16"/>
        <lane id="458998067#0_1" index="1" disallow="tram rail_urban rail rail_electric rail_fast ship cable_car subway" speed="13.89" length="43.14" shape="22371.86,15938.12 22360.56,15965.79 22355.71,15978.06"/>
        <lane id="458998067#0_2" index="2" disallow="tram rail_urban rail rail_electric rail_fast ship cable_car subway" speed="13.89" length="43.14" shape="22368.90,15936.91 22357.60,15964.59 22352.70,15976.95"/>
        <lane id="458998067#0_3" index="3" disallow="tram rail_urban rail rail_electric rail_fast ship cable_car subway" speed="13.89" length="43.14" shape="22365.93,15935.70 22354.63,15963.40 22349.70,15975.85"/>
        <param key="ref" value="B 96a"/>
    </edge>
    <edge id="4615457#1" from="cluster_12614600_1860618754_1860618762_1860618778_1860618795_1860618797_1860618805_1860618824_1860618825_29270276_29270294_29270295_3649758678_3651880147_3657149480_3657636381" to="cluster_29270277_3520995894_3531962779" priority="12" type="highway.primary" spreadType="center" shape="22301.76,15992.89 22279.42,15982.49 22174.24,15932.14 22161.41,15925.86 22156.95,15923.45 22142.95,15915.44 22136.35,15911.67">
        <lane id="4615457#1_0" index="0" disallow="tram rail_urban rail rail_electric rail_fast ship cable_car subway" speed="13.89" length="184.34" shape="22301.08,15994.34 22278.74,15983.94 22173.54,15933.58 22160.68,15927.28 22156.17,15924.85 22142.16,15916.83 22135.56,15913.06"/>
        <lane id="4615457#1_1" index="1" disallow="tram rail_urban rail rail_electric rail_fast ship cable_car subway" speed="13.89" length="184.34" shape="22302.44,15991.44 22280.10,15981.04 22174.94,15930.70 22162.14,15924.44 22157.73,15922.05 22143.74,15914.05 22137.14,15910.28"/>
    </edge>
    <edge id="4615780#1" from="cluster_12614600_1860618754_1860618762_1860618778_1860618795_1860618797_1860618805_1860618824_1860618825_29270276_29270294_29270295_3649758678_3651880147_3657149480_3657636381" to="cluster_28150269_29271707_4377814009_4377814010_4377814011_4377814012_4377814013_4377814014_4377814015_4377814016_4377814017" priority="12" type="highway.primary" spreadType="center" shape="22331.55,15969.19 22335.51,15958.40 22352.70,15913.77 22356.03,15904.93 22360.68,15892.60 22364.10,15884.14 22391.90,15809.84 22405.81,15775.80">
        <lane id="4615780#1_0" index="0" disallow="tram rail_urban rail rail_electric rail_fast ship cable_car subway" speed="13.89" length="221.92" shape="22330.05,15968.64 22334.01,15957.84 22351.21,15913.20 22354.53,15904.37 22359.19,15892.02 22362.61,15883.56 22390.41,15809.26 22409.91,15761.54"/>
        <lane id="4615780#1_1" index="1" disallow="tram rail_urban rail rail_electric rail_fast ship cable_car subway" speed="13.89" length="221.92" shape="22333.05,15969.74 22337.01,15958.96 22354.19,15914.34 22357.53,15905.49 22362.17,15893.18 22365.59,15884.72 22393.39,15810.42 22412.87,15762.75"/>
        <param key="ref" value="B 96a"/>
    </edge>
    <edge id="4685638#1" from="cluster_12614600_1860618754_1860618762_1860618778_1860618795_1860618797_1860618805_1860618824_1860618825_29270276_29270294_29270295_3649758678_3651880147_3657149480_3657636381" to="cluster_1860618835_1860618840_1860618845_1860618847_29784556_29784557" priority="12" type="highway.primary" spreadType="center" shape="22366.54,15999.48 22389.71,16009.82 22495.81,16053.91 22539.68,16073.58">
        <lane id="4685638#1_0" index="0" disallow="tram rail_urban rail rail_electric rail_fast ship cable_car subway" speed="13.89" length="201.12" shape="22367.84,15996.56 22390.98,16006.88 22497.08,16050.97 22552.64,16075.88"/>
        <lane id="4685638#1_1" index="1" disallow="tram rail_urban rail rail_electric rail_fast ship cable_car subway" speed="13.89" length="201.12" shape="22366.54,15999.48 22389.71,16009.82 22495.81,16053.91 22551.33,16078.80"/>
        <lane id="4685638#1_2" index="2" disallow="tram rail_urban rail rail_electric rail_fast ship cable_car subway" speed="13.89" length="201.12" shape="22365.24,16002.40 22388.44,16012.76 22494.54,16056.85 22550.02,16081.72"/>
    </edge>
    <edge id="656241856#1" from="cluster_12614600_1860618754_1860618762_1860618778_1860618795_1860618797_1860618805_1860618824_1860618825_29270276_29270294_29270295_3649758678_3651880147_3657149480_3657636381" to="7689833386" priority="12" type="highway.primary" spreadType="center" shape="22333.42,16022.86 22322.18,16040.79 22300.99,16074.08 22288.40,16093.87 22269.13,16124.34">
        <lane id="656241856#1_0" index="0" disallow="tram rail_urban rail rail_electric rail_fast ship cable_car subway" speed="13.89" length="120.13" shape="22336.13,16024.56 22324.89,16042.50 22303.69,16075.80 22291.10,16095.58 22271.83,16126.05"/>
        <lane id="656241856#1_1" index="1" disallow="tram rail_urban rail rail_electric rail_fast ship cable_car subway" speed="13.89" length="120.13" shape="22333.42,16022.86 22322.18,16040.79 22300.99,16074.08 22288.40,16093.87 22269.13,16124.34"/>
        <lane id="656241856#1_2" index="2" disallow="tram rail_urban rail rail_electric rail_fast ship cable_car subway" speed="13.89" length="120.13" shape="22330.71,16021.16 22319.47,16039.08 22298.29,16072.36 22285.70,16092.16 22266.43,16122.63"/>
        <param key="ref" value="B 96a"/>
    </edge>

    <tlLogic id="cluster_12614600_1860618754_1860618762_1860618778_1860618795_1860618797_1860618805_1860618824_1860618825_29270276_29270294_29270295_3649758678_3651880147_3657149480_3657636381" type="actuated" programID="0" offset="0">
        <phase duration="33" state="GGGgrrrrrGGGGgrrrr" minDur="5" maxDur="50"/>
        <phase duration="3"  state="yyygrrrrryyyygrrrr"/>
        <phase duration="6"  state="rrrGrrrrrrrrrGrrrr" minDur="5" maxDur="50"/>
        <phase duration="3"  state="rrryrrrrrrrrryrrrr"/>
        <phase duration="33" state="rrrrGGGGgrrrrrGGGg" minDur="5" maxDur="50"/>
        <phase duration="3"  state="rrrryyyygrrrrryyyg"/>
        <phase duration="6"  state="rrrrrrrrGrrrrrrrrG" minDur="5" maxDur="50"/>
        <phase duration="3"  state="rrrrrrrryrrrrrrrry"/>
    </tlLogic>

    <junction id="1168825607" type="dead_end" x="22454.77" y="16059.23" incLanes="" intLanes="" shape="22457.22,16053.32 22452.32,16065.14"/>
    <junction id="2649686336" type="dead_end" x="22278.73" y="16061.77" incLanes="" intLanes="" shape="22284.10,16065.26 22273.36,16058.28"/>
    <junction id="313467315" type="dead_end" x="22392.04" y="15884.43" incLanes="" intLanes="" shape="22387.60,15882.62 22396.48,15886.24"/>
    <junction id="3483086926" type="dead_end" x="22215.94" y="15928.39" incLanes="" intLanes="" shape="22214.05,15932.80 22217.83,15923.98"/>
    <junction id="3483086927" type="priority" x="22270.86" y="15953.37" incLanes="341080389_0 341080389_1 341080389_2" intLanes=":3483086927_0_0 :3483086927_0_1 :3483086927_0_2 :3483086927_0_3" shape="22271.85,15960.84 22277.13,15949.19 22274.29,15948.35 22273.22,15948.28 22272.16,15948.20 22270.92,15947.94 22269.34,15947.32 22265.19,15955.97 22267.73,15957.65 22268.51,15958.44 22269.28,15959.22 22270.31,15960.02">
        <request index="0" response="0000" foes="0000" cont="0"/>
        <request index="1" response="0000" foes="0000" cont="0"/>
        <request index="2" response="0000" foes="0000" cont="0"/>
        <request index="3" response="0000" foes="0000" cont="0"/>
    </junction>
    <junction id="4549201081" type="priority" x="22371.89" y="15933.81" incLanes="338616240_0 338616240_1 338616240_2" intLanes=":4549201081_0_0 :4549201081_0_1 :4549201081_0_2 :4549201081_0_3" shape="22377.85,15931.92 22368.96,15928.29 22367.45,15930.90 22365.96,15932.49 22365.21,15933.54 22364.45,15935.09 22376.30,15939.93 22377.05,15937.02 22377.10,15934.84 22377.30,15933.56">
        <request index="0" response="0000" foes="0000" cont="0"/>
        <request index="1" response="0000" foes="0000" cont="0"/>
        <request index="2" response="0000" foes="0000" cont="0"/>