<?xml version="1.0" encoding="UTF-8"?>

<!-- generated on 2026-02-11 22:48:26.269403 by Eclipse SUMO cutRoutes.py UNKNOWN
<configuration>
    <routes-output value="a.rou.xml"/>
    <orig-net value="berlin-small.net.xml"/>
    <network value="a.net.xml"/>
    <routeFiles value="berlin-small.rou.xml"/>
</configuration>
-->

<routes xmlns:xsi="http://www.w3.org/2001/XMLSchema-instance" xsi:noNamespaceSchemaLocation="http://sumo.dlr.de/xsd/routes_file.xsd">
    <vType id="DefaultVehicle" length="5.00" minGap="2.00" maxSpeed="50.00" accel="1.50" decel="4.50" sigma="0.50" tau="1.00"/>
    <vehicle id="97" type="DefaultVehicle" depart="476.08" departLane="best" departSpeed="max">
        <route edges="823635966 4782467#1"/>
    </vehicle>
    <vehicle id="240" type="DefaultVehicle" depart="675.67" departLane="best" departSpeed="max">
        <route edges="823635966 4782467#1"/>
    </vehicle>
    <vehicle id="266" type="DefaultVehicle" depart="830.58" departLane="best" departSpeed="max">
        <route edges="823635966 4782467#1"/>
    </vehicle>
    <vehicle id="1689" type="DefaultVehicle" depart="6214.21" departLane="best" departSpeed="max">
        <route edges="-8084127 4782467#1"/>
    </vehicle>
    <vehicle id="2519" type="DefaultVehicle" depart="8743.96" departLane="best" departSpeed="max">
        <route edges="823635966 4782467#1"/>
    </vehicle>
    <vehicle id="2953" type="DefaultVehicle" depart="9870.33" departLane="best" departSpeed="max">
        <route edges="823635966 4782467#1"/>
    </vehicle>
    <vehicle id="3466" type="DefaultVehicle" depart="10637.19" departLane="best" departSpeed="max">
        <route edges="823635966 4782467#1"/>
    </vehicle>
    <vehicle id="3414" type="DefaultVehicle" depart="10648.97" departLane="best" departSpeed="max">
        <route edges="823635966 4782467#1"/>
    </vehicle>
    <vehicle id="3593" type="DefaultVehicle" depart="10903.75" departLane="best" departSpeed="max">
        <route edges="823635966 4782467#1"/>
    </vehicle>
    <vehicle id="3733" type="DefaultVehicle" depart="11124.50" departLane="best" departSpeed="max">
        <route edges="823635966 4782467#1"/>
    </vehicle>
    <vehicle id="3943" type="DefaultVehicle" depart="11409.84" departLane="best" departSpeed="max">
        <route edges="823635966 4782467#1"/>
    </vehicle>
    <vehicle id="3952" type="DefaultVehicle" depart="11429.84" departLane="best" departSpeed="max">
        <route edges="823635966 4782467#1"/>
    </vehicle>
    <vehicle id="3966" type="DefaultVehicle" depart="11492.55" departLane="best" departSpeed="max">
        <route edges="823635966 4782467#1"/>
    </vehicle>
    <vehicle id="4357" type="DefaultVehicle" depart="11632.80" departLane="best" departSpeed="max">
        <route edges="823635966 4782467#1"/>
    </vehicle>
    <vehicle id="4150" type="DefaultVehicle" depart="11690.19" departLane="best" departSpeed="max">
        <route edges="823635966 4782467#1"/>
    </vehicle>
    <vehicle id="4363" type="DefaultVehicle" depart="11863.44" departLane="best" departSpeed="max">
        <route edges="823635966 4782467#1"/>
    </vehicle>
    <vehicle id="5388" type="DefaultVehicle" depart="13356.05" departLane="best" departSpeed="max">
        <route edges="-8084127 4782467#1"/>
    </vehicle>
    <vehicle id="5812" type="DefaultVehicle" depart="13562.06" departLane="best" departSpeed="max">
        <route edges="823635966 4782467#1"/>
    </vehicle>
    <vehicle id="6124" type="DefaultVehicle" depart="13772.51" departLane="best" departSpeed="max">
        <route edges="823635966 4782467#1"/>
    </vehicle>
    <vehicle id="6245" type="DefaultVehicle" depart="13835.05" departLane="best" departSpeed="max">
        <route edges="823635966 4782467#1"/>
    </vehicle>
    <vehicle id="6448" type="DefaultVehicle" depart="13996.16" departLane="best" departSpeed="max">
        <route edges="823635966"/>
    </vehicle>
    <vehicle id="6342" type="DefaultVehicle" depart="14010.37" departLane="best" departSpeed="max">
        <route edges="823635966 4782467#1"/>
    </vehicle>
    <vehicle id="6602" type="DefaultVehicle" depart="14144.41" departLane="best" departSpeed="max">
        <route edges="-8084127 4782467#1"/>
    </vehicle>
    <vehicle id="6274" type="DefaultVehicle" depart="14170.49" departLane="best" departSpeed="max">
        <route edges="823635966 8084127"/>
    </vehicle>
    <vehicle id="6948" type="DefaultVehicle" depart="14421.35" departLane="best" departSpeed="max">
        <route edges="823635966 4782467#1"/>
    </vehicle>
    <vehicle id="7071" type="DefaultVehicle" depart="14597.78" departLane="best" departSpeed="max">
        <route edges="823635966 4782467#1"/>
    </vehicle>
    <vehicle id="7669" type="DefaultVehicle" depart="14937.00">
        <route edges="8084127"/>
    </vehicle>
    <vehicle id="7613" type="DefaultVehicle" depart="14979.32" departLane="best" departSpeed="max">
        <route edges="823635966 4782467#1"/>
    </vehicle>
    <vehicle id="6789" type="DefaultVehicle" depart="15001.35" departLane="best" departSpeed="max">
        <route edges="-8084127 4782467#1"/>
    </vehicle>
    <vehicle id="7813" type="DefaultVehicle" depart="15073.49" departLane="best" departSpeed="max">
        <route edges="823635966 4782467#1"/>
    </vehicle>
    <vehicle id="8844" type="DefaultVehicle" depart="15820.27" departLane="best" departSpeed="max">
        <route edges="823635966 4782467#1"/>
    </vehicle>
    <vehicle id="9339" type="DefaultVehicle" depart="15954.42" departLane="best" departSpeed="max">
        <route edges="823635966 8084127"/>
    </vehicle>
    <vehicle id="9357" type="DefaultVehicle" depart="15986.70" departLane="best" departSpeed="max">
        <route edges="823635966 4782467#1"/>
    </vehicle>
    <vehicle id="9344" type="DefaultVehicle" depart="16012.81" departLane="best" departSpeed="max">
        <route edges="823635966 4782467#1"/>
    </vehicle>
    <vehicle id="9523" type="DefaultVehicle" depart="16074.74" departLane="best" departSpeed="max">
        <route edges="823635966 4782467#1"/>
    </vehicle>
    <vehicle id="9494" type="DefaultVehicle" depart="16489.09" departLane="best" departSpeed="max">
        <route edges="823635966 4782467#1"/>
    </vehicle>
    <vehicle id="9770" type="DefaultVehicle" depart="16639.95" departLane="best" departSpeed="max">
        <route edges="823635966 4782467#1"/>
    </vehicle>
    <vehicle id="10813" type="DefaultVehicle" depart="16722.70" departLane="best" departSpeed="max">
        <route edges="823635966 4782467#1"/>
    </vehicle>
    <vehicle id="11121" type="DefaultVehicle" depart="16829.36" departLane="best" departSpeed="max">
        <route edges="823635966 8084127"/>
    </vehicle>
    <vehicle id="11069" type="DefaultVehicle" depart="16944.20" departLane="best" departSpeed="max">
        <route edges="823635966 4782467#1"/>
    </vehicle>
    <vehicle id="11199" type="DefaultVehicle" depart="17322.09" departLane="best" departSpeed="max">
        <route edges="823635966 4782467#1"/>
    </vehicle>
    <vehicle id="12916" type="DefaultVehicle" depart="18016.51" departLane="best" departSpeed="max">
        <route edges="-8084127 4782467#1"/>
    </vehicle>
    <vehicle id="14486" type="DefaultVehicle" depart="18315.24" departLane="best" departSpeed="max">
        <route edges="823635966 4782467#1"/>
    </vehicle>
    <vehicle id="15522" type="DefaultVehicle" depart="18478.41" departLane="best" departSpeed="max">
        <route edges="823635966 4782467#1"/>
    </vehicle>
    <vehicle id="16155" type="DefaultVehicle" depart="18569.85" departLane="best" departSpeed="max">
        <route edges="823635966 4782467#1"/>
    </vehicle>
    <vehicle id="14397" type="DefaultVehicle" depart="18689.78" departLane="best" departSpeed="max">
        <route edges="823635966 4782467#1"/>
    </vehicle>
    <vehicle id="16252" type="DefaultVehicle" depart="18723.20" departLane="best" departSpeed="max">
        <route edges="823635966 4782467#1"/>
    </vehicle>
    <vehicle id="14696" type="DefaultVehicle" depart="18760.08" departLane="best" departSpeed="max">
        <route edges="823635966 4782467#1"/>
    </vehicle>
    <vehicle id="14926" type="DefaultVehicle" depart="18762.16" departLane="best" departSpeed="max">
        <route edges="823635966 4782467#1"/>
    </vehicle>
    <vehicle id="17826" type="DefaultVehicle" depart="18950.60" departLane="best" departSpeed="max">
        <route edges="-8084127 4782467#1"/>
    </vehicle>
    <vehicle id="17698" type="DefaultVehicle" depart="19068.18" departLane="best" departSpeed="max">
        <route edges="823635966 4782467#1"/>
    </vehicle>
    <vehicle id="17764" type="DefaultVehicle" depart="19101.09" departLane="best" departSpeed="max">
        <route edges="823635966 4782467#1"/>
    </vehicle>
    <vehicle id="17770" type="DefaultVehicle" depart="19125.48" departLane="best" departSpeed="max">
        <route edges="823635966 4782467#1"/>
    </vehicle>
    <vehicle id="16265" type="DefaultVehicle" depart="19143.60" departLane="best" departSpeed="max">
        <route edges="823635966 4782467#1"/>
    </vehicle>
    <vehicle id="18435" type="DefaultVehicle" depart="19198.21" departLane="best" departSpeed="max">
        <route edges="823635966 8084127"/>
    </vehicle>
    <vehicle id="17651" type="DefaultVehicle" depart="19219.89" departLane="best" departSpeed="max">
        <route edges="823635966 4782467#1"/>
    </vehicle>
    <vehicle id="14714" type="DefaultVehicle" depart="19244.23" departLane="best" departSpeed="max">
        <route edges="823635966 4782467#1"/>
    </vehicle>
    <vehicle id="19846" type="DefaultVehicle" depart="19356.12" departLane="best" departSpeed="max">
        <route edges="-8084127 4782467#1"/>
    </vehicle>
    <vehicle id="20205" type="DefaultVehicle" depart="19362.05" departLane="best" departSpeed="max">
        <route edges="-8084127 4782467#1"/>
    </vehicle>
    <vehicle id="18765" type="DefaultVehicle" depart="19451.22" departLane="best" departSpeed="max">
        <route edges="823635966 4782467#1"/>
    </vehicle>
    <vehicle id="20780" type="DefaultVehicle" depart="19525.43" departLane="best" departSpeed="max">
        <route edges="-8084127 4782467#1"/>
    </vehicle>
    <vehicle id="20814" type="DefaultVehicle" depart="19533.60" departLane="best" departSpeed="max">
        <route edges="823635966 4782467#1"/>
    </vehicle>
    <vehicle id="19550" type="DefaultVehicle" depart="19543.93" departLane="best" departSpeed="max">
        <route edges="823635966 4782467#1"/>
    </vehicle>
    <vehicle id="20810" type="DefaultVehicle" depart="19566.49" departLane="best" departSpeed="max">
        <route edges="823635966 4782467#1"/>
    </vehicle>
    <vehicle id="20214" type="DefaultVehicle" depart="19646.29" departLane="best" departSpeed="max">
        <route edges="823635966 4782467#1"/>
    </vehicle>
    <vehicle id="19408" type="DefaultVehicle" depart="19671.22" departLane="best" departSpeed="max">
        <route edges="823635966 4782467#1"/>
    </vehicle>
    <vehicle id="19619" type="DefaultVehicle" depart="19675.04" departLane="best" departSpeed="max">
        <route edges="823635966 4782467#1"/>
    </vehicle>
    <vehicle id="16326" type="DefaultVehicle" depart="19682.75" departLane="best" departSpeed="max">
        <route edges="823635966 4782467#1"/>
    </vehicle>
    <vehicle id="22542" type="DefaultVehicle" depart="19694.01" departLane="best" departSpeed="max">
        <route edges="823635966 4782467#1"/>
    </vehicle>
    <vehicle id="20421" type="DefaultVehicle" depart="19786.19" departLane="best" departSpeed="max">
        <route edges="823635966 4782467#1"/>
    </vehicle>
    <vehicle id="20116" type="DefaultVehicle" depart="19803.32" departLane="best" departSpeed="max">
        <route edges="823635966 4782467#1"/>
    </vehicle>
    <vehicle id="24966" type="DefaultVehicle" depart="19822.36" departLane="best" departSpeed="max">
        <route edges="823635966 4782467#1"/>
    </vehicle>
    <vehicle id="22963" type="DefaultVehicle" depart="19841.46" departLane="best" departSpeed="max">
        <route edges="823635966 4782467#1"/>
    </vehicle>
    <vehicle id="21633" type="DefaultVehicle" depart="19895.59" departLane="best" departSpeed="max">
        <route edges="823635966 4782467#1"/>
    </vehicle>
    <vehicle id="17623" type="DefaultVehicle" depart="19934.10" departLane="best" departSpeed="max">
        <route edges="823635966 4782467#1"/>
    </vehicle>
    <vehicle id="20884" type="DefaultVehicle" depart="19975.32" departLane="best" departSpeed="max">
        <route edges="823635966 4782467#1"/>
    </vehicle>
    <vehicle id="15815" type="DefaultVehicle" depart="20034.47" departLane="best" departSpeed="max">
        <route edges="823635966 4782467#1"/>
    </vehicle>
    <vehicle id="22144" type="DefaultVehicle" depart="20036.99" departLane="best" departSpeed="max">
        <route edges="823635966 4782467#1"/>
    </vehicle>
    <vehicle id="18990" type="DefaultVehicle" depart="20052.24" departLane="best" departSpeed="max">
        <route edges="823635966 4782467#1"/>
    </vehicle>
    <vehicle id="22281" type="DefaultVehicle" depart="20053.17" departLane="best" departSpeed="max">
        <route edges="823635966 4782467#1"/>
    </vehicle>
    <vehicle id="25012" type="DefaultVehicle" depart="20074.49" departLane="best" departSpeed="max">
        <route edges="823635966 4782467#1"/>
    </vehicle>
    <vehicle id="27007" type="DefaultVehicle" depart="20230.83" departLane="best" departSpeed="max">
        <route edges="823635966 4782467#1"/>
    </vehicle>
    <vehicle id="20567" type="DefaultVehicle" depart="20287.64" departLane="best" departSpeed="max">
        <route edges="823635966 4782467#1"/>
    </vehicle>
    <vehicle id="23842" type="DefaultVehicle" depart="20298.62" departLane="best" departSpeed="max">
        <route edges="823635966 4782467#1"/>
    </vehicle>
    <vehicle id="19323" type="DefaultVehicle" depart="20319.61" departLane="best" departSpeed="max">
        <route edges="823635966 4782467#1"/>
    </vehicle>
    <vehicle id="30340" type="DefaultVehicle" depart="20333.36" departLane="best" departSpeed="max">
        <route edges="823635966 4782467#1"/>
    </vehicle>
    <vehicle id="19677" type="DefaultVehicle" depart="20400.77" departLane="best" departSpeed="max">
        <route edges="823635966 4782467#1"/>
    </vehicle>
    <vehicle id="28189" type="DefaultVehicle" depart="20407.00" departLane="best" departSpeed="max">
        <route edges="823635966 4782467#1"/>
    </vehicle>
    <vehicle id="21629" type="DefaultVehicle" depart="20427.15" departLane="best" departSpeed="max">
        <route edges="823635966 4782467#1"/>
    </vehicle>
    <vehicle id="29108" type="DefaultVehicle" depart="20438.88" departLane="best" departSpeed="max">
        <route edges="823635966 4782467#1"/>
    </vehicle>
    <vehicle id="22978" type="DefaultVehicle" depart="20452.38" departLane="best" departSpeed="max">
        <route edges="823635966 4782467#1"/>
    </vehicle>
    <vehicle id="29861" type="DefaultVehicle" depart="20468.92" departLane="best" departSpeed="max">
        <route edges="823635966 4782467#1"/>
    </vehicle>
    <vehicle id="28089" type="DefaultVehicle" depart="20487.94" departLane="best" departSpeed="max">
        <route edges="823635966 4782467#1"/>
    </vehicle>
    <vehicle id="20535" type="DefaultVehicle" depart="20491.29" departLane="best" departSpeed="max">
        <route edges="823635966 4782467#1"/>
    </vehicle>
    <vehicle id="30128" type="DefaultVehicle" depart="20509.86" departLane="best" departSpeed="max">
        <route edges="823635966 4782467#1"/>
    </vehicle>
    <vehicle id="21770" type="DefaultVehicle" depart="20526.01" departLane="best" departSpeed="max">
        <route edges="823635966 4782467#1"/>
    </vehicle>
    <vehicle id="32415" type="DefaultVehicle" depart="20528.71" departLane="best" departSpeed="max">
        <route edges="823635966 4782467#1"/>
    </vehicle>
    <vehicle id="20395" type="DefaultVehicle" depart="20535.22" departLane="best" departSpeed="max">
        <route edges="823635966 4782467#1"/>
    </vehicle>
    <vehicle id="31477" type="DefaultVehicle" depart="20537.97" departLane="best" departSpeed="max">
        <route edges="-8084127 4782467#1"/>
    </vehicle>
    <vehicle id="22436" type="DefaultVehicle" depart="20545.57" departLane="best" departSpeed="max">
        <route edges="823635966 4782467#1"/>
    </vehicle>
    <vehicle id="26820" type="DefaultVehicle" depart="20570.40" departLane="best" departSpeed="max">
        <route edges="823635966 4782467#1"/>
    </vehicle>
    <vehicle id="32850" type="DefaultVehicle" depart="20577.06" departLane="best" departSpeed="max">
        <route edges="823635966 4782467#1"/>
    </vehicle>
    <vehicle id="26608" type="DefaultVehicle" depart="20587.87" departLane="best" departSpeed="max">
        <route edges="823635966 4782467#1"/>
    </vehicle>
    <vehicle id="22396" type="DefaultVehicle" depart="20599.39" departLane="best" departSpeed="max">
        <route edges="823635966 4782467#1"/>
    </vehicle>
    <vehicle id="32640" type="DefaultVehicle" depart="20609.26" departLane="best" departSpeed="max">
        <route edges="823635966 4782467#1"/>
    </vehicle>
    <vehicle id="25772" type="DefaultVehicle" depart="20639.96" departLane="best" departSpeed="max">
        <route edges="823635966 4782467#1"/>
    </vehicle>
    <vehicle id="22993" type="DefaultVehicle" depart="20667.15" departLane="best" departSpeed="max">
        <route edges="823635966 4782467#1"/>
    </vehicle>
    <vehicle id="31991" type="DefaultVehicle" depart="20722.86" departLane="best" departSpeed="max">
        <route edges="823635966 4782467#1"/>
    </vehicle>
    <vehicle id="23843" type="DefaultVehicle" depart="20739.40" departLane="best" departSpeed="max">
        <route edges="823635966 4782467#1"/>
    </vehicle>
    <vehicle id="21971" type="DefaultVehicle" depart="20740.75" departLane="best" departSpeed="max">
        <route edges="823635966 4782467#1"/>
    </vehicle>
    <vehicle id="34460" type="DefaultVehicle" depart="20754.31" departLane="best" departSpeed="max">
        <route edges="823635966 4782467#1"/>
    </vehicle>
    <vehicle id="25931" type="DefaultVehicle" depart="20760.20" departLane="best" departSpeed="max">
        <route edges="823635966 4782467#1"/>
    </vehicle>
    <vehicle id="25343" type="DefaultVehicle" depart="20771.75" departLane="best" departSpeed="max">
        <route edges="823635966 4782467#1"/>
    </vehicle>
    <vehicle id="23787" type="DefaultVehicle" depart="20772.32" departLane="best" departSpeed="max">
        <route edges="823635966 4782467#1"/>
    </vehicle>
    <vehicle id="32838" type="DefaultVehicle" depart="20783.79" departLane="best" departSpeed="max">
        <route edges="-8084127 4782467#1"/>
    </vehicle>
    <vehicle id="33789" type="DefaultVehicle" depart="20793.29" departLane="best" departSpeed="max">
        <route edges="823635966 4782467#1"/>
    </vehicle>
    <vehicle id="24495" type="DefaultVehicle" depart="20811.26" departLane="best" departSpeed="max">
        <route edges="823635966 4782467#1"/>
    </vehicle>
    <vehicle id="35794" type="DefaultVehicle" depart="20824.92" departLane="best" departSpeed="max">
        <route edges="823635966 4782467#1"/>
    </vehicle>
    <vehicle id="32351" type="DefaultVehicle" depart="20825.61" departLane="best" departSpeed="max">
        <route edges="823635966 4782467#1"/>
    </vehicle>
    <vehicle id="32809" type="DefaultVehicle" depart="20828.81" departLane="best" departSpeed="max">
        <route edges="823635966 4782467#1"/>
    </vehicle>
    <vehicle id="19623" type="DefaultVehicle" depart="20837.05" departLane="best" departSpeed="max">
        <route edges="823635966 4782467#1"/>
    </vehicle>
    <vehicle id="34679" type="DefaultVehicle" depart="20841.85" departLane="best" departSpeed="max">
        <route edges="823635966 4782467#1"/>
    </vehicle>
    <vehicle id="34334" type="DefaultVehicle" depart="20844.39" departLane="best" departSpeed="max">
        <route edges="823635966 4782467#1"/>
    </vehicle>
    <vehicle id="34063" type="DefaultVehicle" depart="20846.54" departLane="best" departSpeed="max">
        <route edges="823635966 4782467#1"/>
    </vehicle>
    <vehicle id="31002" type="DefaultVehicle" depart="20852.61" departLane="best" departSpeed="max">
        <route edges="823635966 4782467#1"/>
    </vehicle>
    <vehicle id="31566" type="DefaultVehicle" depart="20860.30" departLane="best" departSpeed="max">
        <route edges="823635966 4782467#1"/>
    </vehicle>
    <vehicle id="34167" type="DefaultVehicle" depart="20877.89" departLane="best" departSpeed="max">
        <route edges="823635966 4782467#1"/>
    </vehicle>
    <vehicle id="27599" type="DefaultVehicle" depart="20895.53" departLane="best" departSpeed="max">
        <route edges="823635966 4782467#1"/>
    </vehicle>
    <vehicle id="27084" type="DefaultVehicle" depart="20898.61" departLane="best" departSpeed="max">
        <route edges="823635966 4782467#1"/>
    </vehicle>
    <vehicle id="38626" type="DefaultVehicle" depart="20912.73" departLane="best" departSpeed="max">
        <route edges="823635966 4782467#1"/>
    </vehicle>
    <vehicle id="25336" type="DefaultVehicle" depart="20946.65" departLane="best" departSpeed="max">
        <route edges="823635966 4782467#1"/>
    </vehicle>
    <vehicle id="35784" type="DefaultVehicle" depart="20951.59" departLane="best" departSpeed="max">
        <route edges="823635966 4782467#1"/>
    </vehicle>
    <vehicle id="24294" type="DefaultVehicle" depart="20965.08" departLane="best" departSpeed="max">
        <route edges="823635966 4782467#1"/>
    </vehicle>
    <vehicle id="35862" type="DefaultVehicle" depart="20973.70" departLane="best" departSpeed="max">
        <route edges="823635966 4782467#1"/>
    </vehicle>
    <vehicle id="38918" type="DefaultVehicle" depart="20980.95" departLane="best" departSpeed="max">
        <route edges="823635966 4782467#1"/>
    </vehicle>
    <vehicle id="35946" type="DefaultVehicle" depart="20983.21" departLane="best" departSpeed="max">
        <route edges="823635966 4782467#1"/>
    </vehicle>
    <vehicle id="36051" type="DefaultVehicle" depart="20993.67" departLane="best" departSpeed="max">
        <route edges="823635966 4782467#1"/>
    </vehicle>
    <vehicle id="30793" type="DefaultVehicle" depart="20998.04" departLane="best" departSpeed="max">
        <route edges="-8084127 4782467#1"/>
    </vehicle>
    <vehicle id="31569" type="DefaultVehicle" depart="21003.58" departLane="best" departSpeed="max">
        <route edges="823635966 4782467#1"/>
    </vehicle>
    <vehicle id="38594" type="DefaultVehicle" depart="21009.26" departLane="best" departSpeed="max">
        <route edges="823635966 4782467#1"/>
    </vehicle>
    <vehicle id="25969" type="DefaultVehicle" depart="21011.10" departLane="best" departSpeed="max">
        <route edges="823635966 4782467#1"/>
    </vehicle>
    <vehicle id="25165" type="DefaultVehicle" depart="21042.74" departLane="best" departSpeed="max">
        <route edges="823635966 4782467#1"/>
    </vehicle>
    <vehicle id="33576" type="DefaultVehicle" depart="21050.55" departLane="best" departSpeed="max">
        <route edges="823635966 4782467#1"/>
    </vehicle>
    <vehicle id="36222" type="DefaultVehicle" depart="21054.01" departLane="best" departSpeed="max">
        <route edges="823635966 4782467#1"/>
    </vehicle>
    <vehicle id="37853" type="DefaultVehicle" depart="21055.79" departLane="best" departSpeed="max">
        <route edges="823635966 4782467#1"/>
    </vehicle>
    <vehicle id="26505" type="DefaultVehicle" depart="21058.60" departLane="best" departSpeed="max">
        <route edges="823635966 4782467#1"/>
    </vehicle>
    <vehicle id="36801" type="DefaultVehicle" depart="21059.60" departLane="best" departSpeed="max">
        <route edges="823635966 4782467#1"/>
    </vehicle>
    <vehicle id="37543" type="DefaultVehicle" depart="21066.97" departLane="best" departSpeed="max">
        <route edges="823635966 4782467#1"/>
    </vehicle>
    <vehicle id="30080" type="DefaultVehicle" depart="21071.98" departLane="best" departSpeed="max">
        <route edges="823635966 4782467#1"/>
    </vehicle>
    <vehicle id="25371" type="DefaultVehicle" depart="21077.42" departLane="best" departSpeed="max">
        <route edges="823635966 4782467#1"/>
    </vehicle>
    <vehicle id="36135" type="DefaultVehicle" depart="21082.96" departLane="best" departSpeed="max">
        <route edges="823635966 4782467#1"/>
    </vehicle>
    <vehicle id="37204" type="DefaultVehicle" depart="21117.82" departLane="best" departSpeed="max">
        <route edges="823635966 8084127"/>
    </vehicle>
    <vehicle id="42744" type="DefaultVehicle" depart="21161.00">
        <route edges="8084127"/>
    </vehicle>
    <vehicle id="40481" type="DefaultVehicle" depart="21164.95" departLane="best" departSpeed="max">
        <route edges="823635966 4782467#1"/>
    </vehicle>
    <vehicle id="27868" type="DefaultVehicle" depart="21184.22" departLane="best" departSpeed="max">
        <route edges="823635966 4782467#1"/>
    </vehicle>
    <vehicle id="35500" type="DefaultVehicle" depart="21185.74" departLane="best" departSpeed="max">
        <route edges="823635966 4782467#1"/>
    </vehicle>
    <vehicle id="26307" type="DefaultVehicle" depart="21189.51" departLane="best" departSpeed="max">
        <route edges="823635966 4782467#1"/>
    </vehicle>
    <vehicle id="36323" type="DefaultVehicle" depart="21190.27" departLane="best" departSpeed="max">
        <route edges="823635966 4782467#1"/>
    </vehicle>
    <vehicle id="42654" type="DefaultVehicle" depart="21202.59" departLane="best" departSpeed="max">
        <route edges="823635966 4782467#1"/>
    </vehicle>
    <vehicle id="27898" type="DefaultVehicle" depart="21203.18" departLane="best" departSpeed="max">
        <route edges="823635966 4782467#1"/>
    </vehicle>
    <vehicle id="41143" type="DefaultVehicle" depart="21203.32" departLane="best" departSpeed="max">
        <route edges="823635966 4782467#1"/>
    </vehicle>
    <vehicle id="42203" type="DefaultVehicle" depart="21203.81" departLane="best" departSpeed="max">
        <route edges="823635966 4782467#1"/>
    </vehicle>
    <vehicle id="39971" type="DefaultVehicle" depart="21204.33" departLane="best" departSpeed="max">
        <route edges="823635966 4782467#1"/>
    </vehicle>
    <vehicle id="37539" type="DefaultVehicle" depart="21225.16" departLane="best" departSpeed="max">
        <route edges="823635966 4782467#1"/>
    </vehicle>
    <vehicle id="37038" type="DefaultVehicle" depart="21229.40" departLane="best" departSpeed="max">
        <route edges="823635966 4782467#1"/>
    </vehicle>
    <vehicle id="37264" type="DefaultVehicle" depart="21242.85" departLane="best" departSpeed="max">
        <route edges="823635966 4782467#1"/>
    </vehicle>
    <vehicle id="38587" type="DefaultVehicle" depart="21345.17" departLane="best" departSpeed="max">
        <route edges="823635966 4782467#1"/>
    </vehicle>
    <vehicle id="42322" type="DefaultVehicle" depart="21357.67" departLane="best" departSpeed="max">
        <route edges="823635966 4782467#1"/>
    </vehicle>
    <vehicle id="46094" type="DefaultVehicle" depart="21370.47" departLane="best" departSpeed="max">
        <route edges="823635966 4782467#1"/>
    </vehicle>
    <vehicle id="38114" type="DefaultVehicle" depart="21400.03" departLane="best" departSpeed="max">
        <route edges="823635966 4782467#1"/>
    </vehicle>
    <vehicle id="37329" type="DefaultVehicle" depart="21400.80" departLane="best" departSpeed="max">
        <route edges="823635966 4782467#1"/>
    </vehicle>
    <vehicle id="37637" type="DefaultVehicle" depart="21419.16" departLane="best" departSpeed="max">
        <route edges="823635966 4782467#1"/>
    </vehicle>
    <vehicle id="46024" type="DefaultVehicle" depart="21424.48" departLane="best" departSpeed="max">
        <route edges="823635966 4782467#1"/>
    </vehicle>
    <vehicle id="45732" type="DefaultVehicle" depart="21427.82" departLane="best" departSpeed="max">
        <route edges="823635966 4782467#1"/>
    </vehicle>
    <vehicle id="41732" type="DefaultVehicle" depart="21434.21" departLane="best" departSpeed="max">
        <route edges="823635966 4782467#1"/>
    </vehicle>
    <vehicle id="45470" type="DefaultVehicle" depart="21468.89" departLane="best" departSpeed="max">
        <route edges="823635966 4782467#1"/>
    </vehicle>
    <vehicle id="39771" type="DefaultVehicle" depart="21477.49" departLane="best" departSpeed="max">
        <route edges="823635966 4782467#1"/>
    </vehicle>
    <vehicle id="38937" type="DefaultVehicle" depart="21477.72" departLane="best" departSpeed="max">
        <route edges="823635966 4782467#1"/>
    </vehicle>
    <vehicle id="42354" type="DefaultVehicle" depart="21493.04" departLane="best" departSpeed="max">
        <route edges="823635966 4782467#1"/>
    </vehicle>
    <vehicle id="45906" type="DefaultVehicle" depart="21512.47" departLane="best" departSpeed="max">
        <route edges="823635966 4782467#1"/>
    </vehicle>
    <vehicle id="40741" type="DefaultVehicle" depart="21523.23" departLane="best" departSpeed="max">
        <route edges="823635966 4782467#1"/>
    </vehicle>
    <vehicle id="43246" type="DefaultVehicle" depart="21529.58" departLane="best" departSpeed="max">
        <route edges="823635966 4782467#1"/>
    </vehicle>
    <vehicle id="34378" type="DefaultVehicle" depart="21552.67" departLane="best" departSpeed="max">
        <route edges="823635966 4782467#1"/>
    </vehicle>
    <vehicle id="44725" type="DefaultVehicle" depart="21571.54" departLane="best" departSpeed="max">