<?xml version="1.0" encoding="UTF-8"?>

<!-- generated on 2026-02-11 23:32:16.464134 by Eclipse SUMO cutRoutes.py UNKNOWN
<configuration>
    <routes-output value="a.rou.xml"/>
    <orig-net value="berlin-small.net.xml"/>
    <network value="a.net.xml"/>
    <routeFiles value="berlin-small.rou.xml"/>
</configuration>
-->

<routes xmlns:xsi="http://www.w3.org/2001/XMLSchema-instance" xsi:noNamespaceSchemaLocation="http://sumo.dlr.de/xsd/routes_file.xsd">
    <vType id="DefaultVehicle" length="5.00" minGap="2.00" maxSpeed="50.00" accel="1.50" decel="4.50" sigma="0.50" tau="1.00"/>
    <vehicle id="97" type="DefaultVehicle" depart="467.72" departLane="best" departSpeed="max">
        <route edges="656241856#1 823635966 4782467#1"/>
    </vehicle>
    <vehicle id="240" type="DefaultVehicle" depart="667.31" departLane="best" departSpeed="max">
        <route edges="656241856#1 823635966 4782467#1"/>
    </vehicle>
    <vehicle id="266" type="DefaultVehicle" depart="822.22" departLane="best" departSpeed="max">
        <route edges="656241856#1 823635966 4782467#1"/>
    </vehicle>
    <vehicle id="1689" type="DefaultVehicle" depart="6214.21" departLane="best" departSpeed="max">
        <route edges="-8084127 4782467#1"/>
    </vehicle>
    <vehicle id="2519" type="DefaultVehicle" depart="8735.60" departLane="best" departSpeed="max">
        <route edges="656241856#1 823635966 4782467#1"/>
    </vehicle>
    <vehicle id="2953" type="DefaultVehicle" depart="9861.97" departLane="best" departSpeed="max">
        <route edges="656241856#1 823635966 4782467#1"/>
    </vehicle>
    <vehicle id="3466" type="DefaultVehicle" depart="10628.83" departLane="best" departSpeed="max">
        <route edges="656241856#1 823635966 4782467#1"/>
    </vehicle>
    <vehicle id="3414" type="DefaultVehicle" depart="10640.61" departLane="best" departSpeed="max">
        <route edges="656241856#1 823635966 4782467#1"/>
    </vehicle>
    <vehicle id="3593" type="DefaultVehicle" depart="10895.39" departLane="best" departSpeed="max">
        <route edges="656241856#1 823635966 4782467#1"/>
    </vehicle>
    <vehicle id="3733" type="DefaultVehicle" depart="11116.14" departLane="best" departSpeed="max">
        <route edges="656241856#1 823635966 4782467#1"/>
    </vehicle>
    <vehicle id="3943" type="DefaultVehicle" depart="11401.48" departLane="best" departSpeed="max">
        <route edges="656241856#1 823635966 4782467#1"/>
    </vehicle>
    <vehicle id="3952" type="DefaultVehicle" depart="11421.48" departLane="best" departSpeed="max">
        <route edges="656241856#1 823635966 4782467#1"/>
    </vehicle>
    <vehicle id="3966" type="DefaultVehicle" depart="11484.19" departLane="best" departSpeed="max">
        <route edges="656241856#1 823635966 4782467#1"/>
    </vehicle>
    <vehicle id="4357" type="DefaultVehicle" depart="11624.44" departLane="best" departSpeed="max">
        <route edges="656241856#1 823635966 4782467#1"/>
    </vehicle>
    <vehicle id="4150" type="DefaultVehicle" depart="11681.83" departLane="best" departSpeed="max">
        <route edges="656241856#1 823635966 4782467#1"/>
    </vehicle>
    <vehicle id="4363" type="DefaultVehicle" depart="11855.08" departLane="best" departSpeed="max">
        <route edges="656241856#1 823635966 4782467#1"/>
    </vehicle>
    <vehicle id="4730" type="DefaultVehicle" depart="12593.97" departLane="best" departSpeed="max">
        <route edges="656241856#1"/>
    </vehicle>
    <vehicle id="5388" type="DefaultVehicle" depart="13356.05" departLane="best" departSpeed="max">
        <route edges="-8084127 4782467#1"/>
    </vehicle>
    <vehicle id="5324" type="DefaultVehicle" depart="13373.84" departLane="best" departSpeed="max">
        <route edges="656241856#1"/>
    </vehicle>
    <vehicle id="5812" type="DefaultVehicle" depart="13553.70" departLane="best" departSpeed="max">
        <route edges="656241856#1 823635966 4782467#1"/>
    </vehicle>
    <vehicle id="6124" type="DefaultVehicle" depart="13764.15" departLane="best" departSpeed="max">
        <route edges="656241856#1 823635966 4782467#1"/>
    </vehicle>
    <vehicle id="6245" type="DefaultVehicle" depart="13826.69" departLane="best" departSpeed="max">
        <route edges="656241856#1 823635966 4782467#1"/>
    </vehicle>
    <vehicle id="6448" type="DefaultVehicle" depart="13987.80" departLane="best" departSpeed="max">
        <route edges="656241856#1 823635966"/>
    </vehicle>
    <vehicle id="6342" type="DefaultVehicle" depart="14002.01" departLane="best" departSpeed="max">
        <route edges="656241856#1 823635966 4782467#1"/>
    </vehicle>
    <vehicle id="6602" type="DefaultVehicle" depart="14144.41" departLane="best" departSpeed="max">
        <route edges="-8084127 4782467#1"/>
    </vehicle>
    <vehicle id="6274" type="DefaultVehicle" depart="14162.13" departLane="best" departSpeed="max">
        <route edges="656241856#1 823635966 8084127"/>
    </vehicle>
    <vehicle id="6948" type="DefaultVehicle" depart="14412.99" departLane="best" departSpeed="max">
        <route edges="656241856#1 823635966 4782467#1"/>
    </vehicle>
    <vehicle id="7071" type="DefaultVehicle" depart="14589.42" departLane="best" departSpeed="max">
        <route edges="656241856#1 823635966 4782467#1"/>
    </vehicle>
    <vehicle id="7669" type="DefaultVehicle" depart="14937.00">
        <route edges="8084127"/>
    </vehicle>
    <vehicle id="7613" type="DefaultVehicle" depart="14970.96" departLane="best" departSpeed="max">
        <route edges="656241856#1 823635966 4782467#1"/>
    </vehicle>
    <vehicle id="6789" type="DefaultVehicle" depart="15001.35" departLane="best" departSpeed="max">
        <route edges="-8084127 4782467#1"/>
    </vehicle>
    <vehicle id="7813" type="DefaultVehicle" depart="15065.13" departLane="best" departSpeed="max">
        <route edges="656241856#1 823635966 4782467#1"/>
    </vehicle>
    <vehicle id="8844" type="DefaultVehicle" depart="15811.91" departLane="best" departSpeed="max">
        <route edges="656241856#1 823635966 4782467#1"/>
    </vehicle>
    <vehicle id="9339" type="DefaultVehicle" depart="15946.06" departLane="best" departSpeed="max">
        <route edges="656241856#1 823635966 8084127"/>
    </vehicle>
    <vehicle id="9357" type="DefaultVehicle" depart="15978.34" departLane="best" departSpeed="max">
        <route edges="656241856#1 823635966 4782467#1"/>
    </vehicle>
    <vehicle id="9344" type="DefaultVehicle" depart="16004.45" departLane="best" departSpeed="max">
        <route edges="656241856#1 823635966 4782467#1"/>
    </vehicle>
    <vehicle id="9523" type="DefaultVehicle" depart="16066.38" departLane="best" departSpeed="max">
        <route edges="656241856#1 823635966 4782467#1"/>
    </vehicle>
    <vehicle id="9522" type="DefaultVehicle" depart="16275.28" departLane="best" departSpeed="max">
        <route edges="656241856#1"/>
    </vehicle>
    <vehicle id="9494" type="DefaultVehicle" depart="16480.73" departLane="best" departSpeed="max">
        <route edges="656241856#1 823635966 4782467#1"/>
    </vehicle>
    <vehicle id="9770" type="DefaultVehicle" depart="16631.59" departLane="best" departSpeed="max">
        <route edges="656241856#1 823635966 4782467#1"/>
    </vehicle>
    <vehicle id="10813" type="DefaultVehicle" depart="16714.34" departLane="best" departSpeed="max">
        <route edges="656241856#1 823635966 4782467#1"/>
    </vehicle>
    <vehicle id="11121" type="DefaultVehicle" depart="16821.00">
        <route edges="656241856#1 823635966 8084127"/>
    </vehicle>
    <vehicle id="11069" type="DefaultVehicle" depart="16935.84" departLane="best" departSpeed="max">
        <route edges="656241856#1 823635966 4782467#1"/>
    </vehicle>
    <vehicle id="11199" type="DefaultVehicle" depart="17313.73" departLane="best" departSpeed="max">
        <route edges="656241856#1 823635966 4782467#1"/>
    </vehicle>
    <vehicle id="12916" type="DefaultVehicle" depart="18016.51" departLane="best" departSpeed="max">
        <route edges="-8084127 4782467#1"/>
    </vehicle>
    <vehicle id="14486" type="DefaultVehicle" depart="18306.88" departLane="best" departSpeed="max">
        <route edges="656241856#1 823635966 4782467#1"/>
    </vehicle>
    <vehicle id="15522" type="DefaultVehicle" depart="18470.05" departLane="best" departSpeed="max">
        <route edges="656241856#1 823635966 4782467#1"/>
    </vehicle>
    <vehicle id="16155" type="DefaultVehicle" depart="18561.49" departLane="best" departSpeed="max">
        <route edges="656241856#1 823635966 4782467#1"/>
    </vehicle>
    <vehicle id="14397" type="DefaultVehicle" depart="18681.42" departLane="best" departSpeed="max">
        <route edges="656241856#1 823635966 4782467#1"/>
    </vehicle>
    <vehicle id="16252" type="DefaultVehicle" depart="18714.84" departLane="best" departSpeed="max">
        <route edges="656241856#1 823635966 4782467#1"/>
    </vehicle>
    <vehicle id="14696" type="DefaultVehicle" depart="18751.72" departLane="best" departSpeed="max">
        <route edges="656241856#1 823635966 4782467#1"/>
    </vehicle>
    <vehicle id="14926" type="DefaultVehicle" depart="18753.80" departLane="best" departSpeed="max">
        <route edges="656241856#1 823635966 4782467#1"/>
    </vehicle>
    <vehicle id="17826" type="DefaultVehicle" depart="18950.60" departLane="best" departSpeed="max">
        <route edges="-8084127 4782467#1"/>
    </vehicle>
    <vehicle id="17698" type="DefaultVehicle" depart="19059.82" departLane="best" departSpeed="max">
        <route edges="656241856#1 823635966 4782467#1"/>
    </vehicle>
    <vehicle id="17764" type="DefaultVehicle" depart="19092.73" departLane="best" departSpeed="max">
        <route edges="656241856#1 823635966 4782467#1"/>
    </vehicle>
    <vehicle id="17770" type="DefaultVehicle" depart="19117.12" departLane="best" departSpeed="max">
        <route edges="656241856#1 823635966 4782467#1"/>
    </vehicle>
    <vehicle id="16265" type="DefaultVehicle" depart="19135.24" departLane="best" departSpeed="max">
        <route edges="656241856#1 823635966 4782467#1"/>
    </vehicle>
    <vehicle id="18435" type="DefaultVehicle" depart="19189.85" departLane="best" departSpeed="max">
        <route edges="656241856#1 823635966 8084127"/>
    </vehicle>
    <vehicle id="17651" type="DefaultVehicle" depart="19211.53" departLane="best" departSpeed="max">
        <route edges="656241856#1 823635966 4782467#1"/>
    </vehicle>
    <vehicle id="14714" type="DefaultVehicle" depart="19235.87" departLane="best" departSpeed="max">
        <route edges="656241856#1 823635966 4782467#1"/>
    </vehicle>
    <vehicle id="19846" type="DefaultVehicle" depart="19356.12" departLane="best" departSpeed="max">
        <route edges="-8084127 4782467#1"/>
    </vehicle>
    <vehicle id="20205" type="DefaultVehicle" depart="19362.05" departLane="best" departSpeed="max">
        <route edges="-8084127 4782467#1"/>
    </vehicle>
    <vehicle id="18765" type="DefaultVehicle" depart="19442.86" departLane="best" departSpeed="max">
        <route edges="656241856#1 823635966 4782467#1"/>
    </vehicle>
    <vehicle id="20814" type="DefaultVehicle" depart="19525.24" departLane="best" departSpeed="max">
        <route edges="656241856#1 823635966 4782467#1"/>
    </vehicle>
    <vehicle id="20780" type="DefaultVehicle" depart="19525.43" departLane="best" departSpeed="max">
        <route edges="-8084127 4782467#1"/>
    </vehicle>
    <vehicle id="19550" type="DefaultVehicle" depart="19535.57" departLane="best" departSpeed="max">
        <route edges="656241856#1 823635966 4782467#1"/>
    </vehicle>
    <vehicle id="20810" type="DefaultVehicle" depart="19558.13" departLane="best" departSpeed="max">
        <route edges="656241856#1 823635966 4782467#1"/>
    </vehicle>
    <vehicle id="20214" type="DefaultVehicle" depart="19637.93" departLane="best" departSpeed="max">
        <route edges="656241856#1 823635966 4782467#1"/>
    </vehicle>
    <vehicle id="19408" type="DefaultVehicle" depart="19662.86" departLane="best" departSpeed="max">
        <route edges="656241856#1 823635966 4782467#1"/>
    </vehicle>
    <vehicle id="19619" type="DefaultVehicle" depart="19666.68" departLane="best" departSpeed="max">
        <route edges="656241856#1 823635966 4782467#1"/>
    </vehicle>
    <vehicle id="16326" type="DefaultVehicle" depart="19674.39" departLane="best" departSpeed="max">
        <route edges="656241856#1 823635966 4782467#1"/>
    </vehicle>
    <vehicle id="22542" type="DefaultVehicle" depart="19685.65" departLane="best" departSpeed="max">
        <route edges="656241856#1 823635966 4782467#1"/>
    </vehicle>
    <vehicle id="20421" type="DefaultVehicle" depart="19777.83" departLane="best" departSpeed="max">
        <route edges="656241856#1 823635966 4782467#1"/>
    </vehicle>
    <vehicle id="20116" type="DefaultVehicle" depart="19794.96" departLane="best" departSpeed="max">
        <route edges="656241856#1 823635966 4782467#1"/>
    </vehicle>
    <vehicle id="24966" type="DefaultVehicle" depart="19814.00">
        <route edges="656241856#1 823635966 4782467#1"/>
    </vehicle>
    <vehicle id="22963" type="DefaultVehicle" depart="19833.10" departLane="best" departSpeed="max">
        <route edges="656241856#1 823635966 4782467#1"/>
    </vehicle>
    <vehicle id="21633" type="DefaultVehicle" depart="19887.23" departLane="best" departSpeed="max">
        <route edges="656241856#1 823635966 4782467#1"/>
    </vehicle>
    <vehicle id="17623" type="DefaultVehicle" depart="19925.74" departLane="best" departSpeed="max">
        <route edges="656241856#1 823635966 4782467#1"/>
    </vehicle>
    <vehicle id="20884" type="DefaultVehicle" depart="19966.96" departLane="best" departSpeed="max">
        <route edges="656241856#1 823635966 4782467#1"/>
    </vehicle>
    <vehicle id="15815" type="DefaultVehicle" depart="20026.11" departLane="best" departSpeed="max">
        <route edges="656241856#1 823635966 4782467#1"/>
    </vehicle>
    <vehicle id="22144" type="DefaultVehicle" depart="20028.63" departLane="best" departSpeed="max">
        <route edges="656241856#1 823635966 4782467#1"/>
    </vehicle>
    <vehicle id="18990" type="DefaultVehicle" depart="20043.88" departLane="best" departSpeed="max">
        <route edges="656241856#1 823635966 4782467#1"/>
    </vehicle>
    <vehicle id="22281" type="DefaultVehicle" depart="20044.81" departLane="best" departSpeed="max">
        <route edges="656241856#1 823635966 4782467#1"/>
    </vehicle>
    <vehicle id="25012" type="DefaultVehicle" depart="20066.13" departLane="best" departSpeed="max">
        <route edges="656241856#1 823635966 4782467#1"/>
    </vehicle>
    <vehicle id="27007" type="DefaultVehicle" depart="20222.47" departLane="best" departSpeed="max">
        <route edges="656241856#1 823635966 4782467#1"/>
    </vehicle>
    <vehicle id="20567" type="DefaultVehicle" depart="20279.28" departLane="best" departSpeed="max">
        <route edges="656241856#1 823635966 4782467#1"/>
    </vehicle>
    <vehicle id="23842" type="DefaultVehicle" depart="20290.26" departLane="best" departSpeed="max">
        <route edges="656241856#1 823635966 4782467#1"/>
    </vehicle>
    <vehicle id="19323" type="DefaultVehicle" depart="20311.25" departLane="best" departSpeed="max">
        <route edges="656241856#1 823635966 4782467#1"/>
    </vehicle>
    <vehicle id="30340" type="DefaultVehicle" depart="20325.00" departLane="best" departSpeed="max">
        <route edges="656241856#1 823635966 4782467#1"/>
    </vehicle>
    <vehicle id="19677" type="DefaultVehicle" depart="20392.41" departLane="best" departSpeed="max">
        <route edges="656241856#1 823635966 4782467#1"/>
    </vehicle>
    <vehicle id="28189" type="DefaultVehicle" depart="20398.64" departLane="best" departSpeed="max">
        <route edges="656241856#1 823635966 4782467#1"/>
    </vehicle>
    <vehicle id="21629" type="DefaultVehicle" depart="20418.79" departLane="best" departSpeed="max">
        <route edges="656241856#1 823635966 4782467#1"/>
    </vehicle>
    <vehicle id="29108" type="DefaultVehicle" depart="20430.52" departLane="best" departSpeed="max">
        <route edges="656241856#1 823635966 4782467#1"/>
    </vehicle>
    <vehicle id="22978" type="DefaultVehicle" depart="20444.02" departLane="best" departSpeed="max">
        <route edges="656241856#1 823635966 4782467#1"/>
    </vehicle>
    <vehicle id="29861" type="DefaultVehicle" depart="20460.56" departLane="best" departSpeed="max">
        <route edges="656241856#1 823635966 4782467#1"/>
    </vehicle>
    <vehicle id="28089" type="DefaultVehicle" depart="20479.58" departLane="best" departSpeed="max">
        <route edges="656241856#1 823635966 4782467#1"/>
    </vehicle>
    <vehicle id="20535" type="DefaultVehicle" depart="20482.93" departLane="best" departSpeed="max">
        <route edges="656241856#1 823635966 4782467#1"/>
    </vehicle>
    <vehicle id="30128" type="DefaultVehicle" depart="20501.50" departLane="best" departSpeed="max">
        <route edges="656241856#1 823635966 4782467#1"/>
    </vehicle>
    <vehicle id="21770" type="DefaultVehicle" depart="20517.65" departLane="best" departSpeed="max">
        <route edges="656241856#1 823635966 4782467#1"/>
    </vehicle>
    <vehicle id="32415" type="DefaultVehicle" depart="20520.35" departLane="best" departSpeed="max">
        <route edges="656241856#1 823635966 4782467#1"/>
    </vehicle>
    <vehicle id="20395" type="DefaultVehicle" depart="20526.86" departLane="best" departSpeed="max">
        <route edges="656241856#1 823635966 4782467#1"/>
    </vehicle>
    <vehicle id="22436" type="DefaultVehicle" depart="20537.21" departLane="best" departSpeed="max">
        <route edges="656241856#1 823635966 4782467#1"/>
    </vehicle>
    <vehicle id="31477" type="DefaultVehicle" depart="20537.97" departLane="best" departSpeed="max">
        <route edges="-8084127 4782467#1"/>
    </vehicle>
    <vehicle id="26820" type="DefaultVehicle" depart="20562.04" departLane="best" departSpeed="max">
        <route edges="656241856#1 823635966 4782467#1"/>
    </vehicle>
    <vehicle id="32850" type="DefaultVehicle" depart="20568.70" departLane="best" departSpeed="max">
        <route edges="656241856#1 823635966 4782467#1"/>
    </vehicle>
    <vehicle id="26608" type="DefaultVehicle" depart="20579.51" departLane="best" departSpeed="max">
        <route edges="656241856#1 823635966 4782467#1"/>
    </vehicle>
    <vehicle id="22396" type="DefaultVehicle" depart="20591.03" departLane="best" departSpeed="max">
        <route edges="656241856#1 823635966 4782467#1"/>
    </vehicle>
    <vehicle id="32640" type="DefaultVehicle" depart="20600.90" departLane="best" departSpeed="max">
        <route edges="656241856#1 823635966 4782467#1"/>
    </vehicle>
    <vehicle id="25772" type="DefaultVehicle" depart="20631.60" departLane="best" departSpeed="max">
        <route edges="656241856#1 823635966 4782467#1"/>
    </vehicle>
    <vehicle id="22993" type="DefaultVehicle" depart="20658.79" departLane="best" departSpeed="max">
        <route edges="656241856#1 823635966 4782467#1"/>
    </vehicle>
    <vehicle id="31991" type="DefaultVehicle" depart="20714.50" departLane="best" departSpeed="max">
        <route edges="656241856#1 823635966 4782467#1"/>
    </vehicle>
    <vehicle id="23843" type="DefaultVehicle" depart="20731.04" departLane="best" departSpeed="max">
        <route edges="656241856#1 823635966 4782467#1"/>
    </vehicle>
    <vehicle id="21971" type="DefaultVehicle" depart="20732.39" departLane="best" departSpeed="max">
        <route edges="656241856#1 823635966 4782467#1"/>
    </vehicle>
    <vehicle id="34460" type="DefaultVehicle" depart="20745.95" departLane="best" departSpeed="max">
        <route edges="656241856#1 823635966 4782467#1"/>
    </vehicle>
    <vehicle id="25931" type="DefaultVehicle" depart="20751.84" departLane="best" departSpeed="max">
        <route edges="656241856#1 823635966 4782467#1"/>
    </vehicle>
    <vehicle id="25343" type="DefaultVehicle" depart="20763.39" departLane="best" departSpeed="max">
        <route edges="656241856#1 823635966 4782467#1"/>
    </vehicle>
    <vehicle id="23787" type="DefaultVehicle" depart="20763.96" departLane="best" departSpeed="max">
        <route edges="656241856#1 823635966 4782467#1"/>
    </vehicle>
    <vehicle id="32838" type="DefaultVehicle" depart="20783.79" departLane="best" departSpeed="max">
        <route edges="-8084127 4782467#1"/>
    </vehicle>
    <vehicle id="33789" type="DefaultVehicle" depart="20784.93" departLane="best" departSpeed="max">
        <route edges="656241856#1 823635966 4782467#1"/>
    </vehicle>
    <vehicle id="24495" type="DefaultVehicle" depart="20802.90" departLane="best" departSpeed="max">
        <route edges="656241856#1 823635966 4782467#1"/>
    </vehicle>
    <vehicle id="35794" type="DefaultVehicle" depart="20816.56" departLane="best" departSpeed="max">
        <route edges="656241856#1 823635966 4782467#1"/>
    </vehicle>
    <vehicle id="32351" type="DefaultVehicle" depart="20817.25" departLane="best" departSpeed="max">
        <route edges="656241856#1 823635966 4782467#1"/>
    </vehicle>
    <vehicle id="32809" type="DefaultVehicle" depart="20820.45" departLane="best" departSpeed="max">
        <route edges="656241856#1 823635966 4782467#1"/>
    </vehicle>
    <vehicle id="19623" type="DefaultVehicle" depart="20828.69" departLane="best" departSpeed="max">
        <route edges="656241856#1 823635966 4782467#1"/>
    </vehicle>
    <vehicle id="34679" type="DefaultVehicle" depart="20833.49" departLane="best" departSpeed="max">
        <route edges="656241856#1 823635966 4782467#1"/>
    </vehicle>
    <vehicle id="34334" type="DefaultVehicle" depart="20836.03" departLane="best" departSpeed="max">
        <route edges="656241856#1 823635966 4782467#1"/>
    </vehicle>
    <vehicle id="34063" type="DefaultVehicle" depart="20838.18" departLane="best" departSpeed="max">
        <route edges="656241856#1 823635966 4782467#1"/>
    </vehicle>
    <vehicle id="31002" type="DefaultVehicle" depart="20844.25" departLane="best" departSpeed="max">
        <route edges="656241856#1 823635966 4782467#1"/>
    </vehicle>
    <vehicle id="31566" type="DefaultVehicle" depart="20851.94" departLane="best" departSpeed="max">
        <route edges="656241856#1 823635966 4782467#1"/>
    </vehicle>
    <vehicle id="36173" type="DefaultVehicle" depart="20865.65" departLane="best" departSpeed="max">
        <route edges="656241856#1"/>
    </vehicle>
    <vehicle id="34167" type="DefaultVehicle" depart="20869.53" departLane="best" departSpeed="max">
        <route edges="656241856#1 823635966 4782467#1"/>
    </vehicle>
    <vehicle id="27599" type="DefaultVehicle" depart="20887.17" departLane="best" departSpeed="max">
        <route edges="656241856#1 823635966 4782467#1"/>
    </vehicle>
    <vehicle id="27084" type="DefaultVehicle" depart="20890.25" departLane="best" departSpeed="max">
        <route edges="656241856#1 823635966 4782467#1"/>
    </vehicle>
    <vehicle id="38626" type="DefaultVehicle" depart="20904.37" departLane="best" departSpeed="max">
        <route edges="656241856#1 823635966 4782467#1"/>
    </vehicle>
    <vehicle id="25336" type="DefaultVehicle" depart="20938.29" departLane="best" departSpeed="max">
        <route edges="656241856#1 823635966 4782467#1"/>
    </vehicle>
    <vehicle id="35784" type="DefaultVehicle" depart="20943.23" departLane="best" departSpeed="max">
        <route edges="656241856#1 823635966 4782467#1"/>
    </vehicle>
    <vehicle id="24294" type="DefaultVehicle" depart="20956.72" departLane="best" departSpeed="max">
        <route edges="656241856#1 823635966 4782467#1"/>
    </vehicle>
    <vehicle id="35862" type="DefaultVehicle" depart="20965.34" departLane="best" departSpeed="max">
        <route edges="656241856#1 823635966 4782467#1"/>
    </vehicle>
    <vehicle id="38918" type="DefaultVehicle" depart="20972.59" departLane="best" departSpeed="max">
        <route edges="656241856#1 823635966 4782467#1"/>
    </vehicle>
    <vehicle id="35946" type="DefaultVehicle" depart="20974.85" departLane="best" departSpeed="max">
        <route edges="656241856#1 823635966 4782467#1"/>
    </vehicle>
    <vehicle id="36051" type="DefaultVehicle" depart="20985.31" departLane="best" departSpeed="max">
        <route edges="656241856#1 823635966 4782467#1"/>
    </vehicle>
    <vehicle id="31569" type="DefaultVehicle" depart="20995.22" departLane="best" departSpeed="max">
        <route edges="656241856#1 823635966 4782467#1"/>
    </vehicle>
    <vehicle id="30793" type="DefaultVehicle" depart="20998.04" departLane="best" departSpeed="max">
        <route edges="-8084127 4782467#1"/>
    </vehicle>
    <vehicle id="38594" type="DefaultVehicle" depart="21000.90" departLane="best" departSpeed="max">
        <route edges="656241856#1 823635966 4782467#1"/>
    </vehicle>
    <vehicle id="25969" type="DefaultVehicle" depart="21002.74" departLane="best" departSpeed="max">
        <route edges="656241856#1 823635966 4782467#1"/>
    </vehicle>
    <vehicle id="25165" type="DefaultVehicle" depart="21034.38" departLane="best" departSpeed="max">
        <route edges="656241856#1 823635966 4782467#1"/>
    </vehicle>
    <vehicle id="33576" type="DefaultVehicle" depart="21042.19" departLane="best" departSpeed="max">
        <route edges="656241856#1 823635966 4782467#1"/>
    </vehicle>
    <vehicle id="36222" type="DefaultVehicle" depart="21045.65" departLane="best" departSpeed="max">
        <route edges="656241856#1 823635966 4782467#1"/>
    </vehicle>
    <vehicle id="37853" type="DefaultVehicle" depart="21047.43" departLane="best" departSpeed="max">
        <route edges="656241856#1 823635966 4782467#1"/>
    </vehicle>
    <vehicle id="26505" type="DefaultVehicle" depart="21050.24" departLane="best" departSpeed="max">
        <route edges="656241856#1 823635966 4782467#1"/>
    </vehicle>
    <vehicle id="36801" type="DefaultVehicle" depart="21051.24" departLane="best" departSpeed="max">
        <route edges="656241856#1 823635966 4782467#1"/>
    </vehicle>
    <vehicle id="37543" type="DefaultVehicle" depart="21058.61" departLane="best" departSpeed="max">
        <route edges="656241856#1 823635966 4782467#1"/>
    </vehicle>
    <vehicle id="30080" type="DefaultVehicle" depart="21063.62" departLane="best" departSpeed="max">
        <route edges="656241856#1 823635966 4782467#1"/>
    </vehicle>
    <vehicle id="25371" type="DefaultVehicle" depart="21069.06" departLane="best" departSpeed="max">
        <route edges="656241856#1 823635966 4782467#1"/>
    </vehicle>
    <vehicle id="36135" type="DefaultVehicle" depart="21074.60" departLane="best" departSpeed="max">
        <route edges="656241856#1 823635966 4782467#1"/>
    </vehicle>
    <vehicle id="37204" type="DefaultVehicle" depart="21109.46" departLane="best" departSpeed="max">
        <route edges="656241856#1 823635966 8084127"/>
    </vehicle>
    <vehicle id="40481" type="DefaultVehicle" depart="21156.59" departLane="best" departSpeed="max">
        <route edges="656241856#1 823635966 4782467#1"/>
    </vehicle>
    <vehicle id="42744" type="DefaultVehicle" depart="21161.00">
        <route edges="8084127"/>
    </vehicle>
    <vehicle id="27868" type="DefaultVehicle" depart="21175.86" departLane="best" departSpeed="max">
        <route edges="656241856#1 823635966 4782467#1"/>
    </vehicle>
    <vehicle id="35500" type="DefaultVehicle" depart="21177.38" departLane="best" departSpeed="max">
        <route edges="656241856#1 823635966 4782467#1"/>
    </vehicle>
    <vehicle id="26307" type="DefaultVehicle" depart="21181.15" departLane="best" departSpeed="max">
        <route edges="656241856#1 823635966 4782467#1"/>
    </vehicle>
    <vehicle id="36323" type="DefaultVehicle" depart="21181.91" departLane="best" departSpeed="max">
        <route edges="656241856#1 823635966 4782467#1"/>
    </vehicle>
    <vehicle id="42654" type="DefaultVehicle" depart="21194.23" departLane="best" departSpeed="max">
        <route edges="656241856#1 823635966 4782467#1"/>
    </vehicle>
    <vehicle id="27898" type="DefaultVehicle" depart="21194.82" departLane="best" departSpeed="max">
        <route edges="656241856#1 823635966 4782467#1"/>
    </vehicle>
    <vehicle id="41143" type="DefaultVehicle" depart="21194.96" departLane="best" departSpeed="max">
        <route edges="656241856#1 823635966 4782467#1"/>
    </vehicle>
    <vehicle id="42203" type="DefaultVehicle" depart="21195.45" departLane="best" departSpeed="max">
        <route edges="656241856#1 823635966 4782467#1"/>
    </vehicle>
    <vehicle id="39971" type="DefaultVehicle" depart="21195.97" departLane="best" departSpeed="max">
        <route edges="656241856#1 823635966 4782467#1"/>
    </vehicle>
    <vehicle id="37539" type="DefaultVehicle" depart="21216.80" departLane="best" departSpeed="max">
        <route edges="656241856#1 823635966 4782467#1"/>
    </vehicle>
    <vehicle id="37038" type="DefaultVehicle" depart="21221.04" departLane="best" departSpeed="max">
        <route edges="656241856#1 823635966 4782467#1"/>
    </vehicle>
    <vehicle id="37264" type="DefaultVehicle" depart="21234.49" departLane="best" departSpeed="max">
        <route edges="656241856#1 823635966 4782467#1"/>
    </vehicle>
    <vehicle id="38587" type="DefaultVehicle" depart="21336.81" departLane="best" departSpeed="max">
        <route edges="656241856#1 823635966 4782467#1"/>
    </vehicle>
    <vehicle id="42322" type="DefaultVehicle" depart="21349.31" departLane="best" departSpeed="max">
        <route edges="656241856#1 823635966 4782467#1"/>
    </vehicle>
    <vehicle id="46094" type="DefaultVehicle" depart="21362.11" departLane="best" departSpeed="max">
        <route edges="656241856#1 823635966 4782467#1"/>