<?xml version="1.0" encoding="UTF-8"?>
<!-- Auto-generated Traffic Pattern Library -->
<!-- Total Duration: 7200s (2.0 hours) -->
<!-- Network: grid4x4.net.xml -->
<routes>
    <vType id="passenger" accel="0.8" decel="4.5" length="5.0" minGap="2.5" maxSpeed="13.89" vClass="passenger" speedFactor="1.0" speedDev="0.1" jmIgnoreJunctionFoeProb="1.0" jmIgnoreKeepClearTime="-1" />

    <route id="route_0" edges="A0A1 A1B1" />
    <route id="route_1" edges="A0A1 A1A2" />
    <route id="route_2" edges="A0A1 A1A2" />
    <route id="route_3" edges="A0A1 A1A0" />
    <route id="route_4" edges="A0B0 B0C0" />
    <route id="route_5" edges="A0B0 B0C0" />
    <route id="route_6" edges="A0B0 B0B1" />
    <route id="route_7" edges="A0B0 B0A0" />
    <route id="route_8" edges="A1A0 A0B0" />
    <route id="route_9" edges="A1A0 A0B0" />
    <route id="route_10" edges="A1A2 A2B2" />
    <route id="route_11" edges="A1A2 A2A3" />
    <route id="route_12" edges="A1A2 A2A3" />
    <route id="route_13" edges="A1A2 A2A1" />
    <route id="route_14" edges="A1B1 B1B0" />
    <route id="route_15" edges="A1B1 B1C1" />
    <route id="route_16" edges="A1B1 B1C1" />
    <route id="route_17" edges="A1B1 B1B2" />
    <route id="route_18" edges="A1B1 B1A1" />
    <route id="route_19" edges="A2A1 A1A0" />
    <route id="route_20" edges="A2A1 A1A0" />
    <route id="route_21" edges="A2A1 A1B1" />
    <route id="route_22" edges="A2A1 A1A2" />
    <route id="route_23" edges="A2A3 A3B3" />
    <route id="route_24" edges="A2A3 A3B3" />
    <route id="route_25" edges="A2B2 B2B1" />
    <route id="route_26" edges="A2B2 B2C2" />
    <route id="route_27" edges="A2B2 B2C2" />
    <route id="route_28" edges="A2B2 B2B3" />
    <route id="route_29" edges="A2B2 B2A2" />
    <route id="route_30" edges="A3A2 A2A1" />
    <route id="route_31" edges="A3A2 A2A1" />
    <route id="route_32" edges="A3A2 A2B2" />
    <route id="route_33" edges="A3A2 A2A3" />
    <route id="route_34" edges="A3B3 B3B2" />
    <route id="route_35" edges="A3B3 B3C3" />
    <route id="route_36" edges="A3B3 B3C3" />
    <route id="route_37" edges="A3B3 B3A3" />
    <route id="route_38" edges="B0A0 A0A1" />
    <route id="route_39" edges="B0A0 A0A1" />
    <route id="route_40" edges="B0B1 B1C1" />
    <route id="route_41" edges="B0B1 B1B2" />
    <route id="route_42" edges="B0B1 B1B2" />
    <route id="route_43" edges="B0B1 B1A1" />
    <route id="route_44" edges="B0B1 B1B0" />
    <route id="route_45" edges="B0C0 C0D0" />
    <route id="route_46" edges="B0C0 C0D0" />
    <route id="route_47" edges="B0C0 C0C1" />
    <route id="route_48" edges="B0C0 C0B0" />
    <route id="route_49" edges="B1A1 A1A2" />
    <route id="route_50" edges="B1A1 A1A2" />
    <route id="route_51" edges="B1A1 A1A0" />
    <route id="route_52" edges="B1A1 A1B1" />
    <route id="route_53" edges="B1B0 B0A0" />
    <route id="route_54" edges="B1B0 B0A0" />
    <route id="route_55" edges="B1B0 B0C0" />
    <route id="route_56" edges="B1B0 B0B1" />
    <route id="route_57" edges="B1B2 B2C2" />
    <route id="route_58" edges="B1B2 B2B3" />
    <route id="route_59" edges="B1B2 B2B3" />
    <route id="route_60" edges="B1B2 B2A2" />
    <route id="route_61" edges="B1B2 B2B1" />
    <route id="route_62" edges="B1C1 C1C0" />
    <route id="route_63" edges="B1C1 C1D1" />
    <route id="route_64" edges="B1C1 C1D1" />
    <route id="route_65" edges="B1C1 C1C2" />
    <route id="route_66" edges="B1C1 C1B1" />
    <route id="route_67" edges="B2A2 A2A3" />
    <route id="route_68" edges="B2A2 A2A3" />
    <route id="route_69" edges="B2A2 A2A1" />
    <route id="route_70" edges="B2A2 A2B2" />
    <route id="route_71" edges="B2B1 B1A1" />
    <route id="route_72" edges="B2B1 B1B0" />
    <route id="route_73" edges="B2B1 B1B0" />
    <route id="route_74" edges="B2B1 B1C1" />
    <route id="route_75" edges="B2B1 B1B2" />
    <route id="route_76" edges="B2B3 B3C3" />
    <route id="route_77" edges="B2B3 B3C3" />
    <route id="route_78" edges="B2B3 B3A3" />
    <route id="route_79" edges="B2B3 B3B2" />
    <route id="route_80" edges="B2C2 C2C1" />
    <route id="route_81" edges="B2C2 C2D2" />
    <route id="route_82" edges="B2C2 C2D2" />
    <route id="route_83" edges="B2C2 C2C3" />
    <route id="route_84" edges="B2C2 C2B2" />
    <route id="route_85" edges="B3A3 A3A2" />
    <route id="route_86" edges="B3A3 A3A2" />
    <route id="route_87" edges="B3B2 B2A2" />
    <route id="route_88" edges="B3B2 B2B1" />
    <route id="route_89" edges="B3B2 B2B1" />
    <route id="route_90" edges="B3B2 B2C2" />
    <route id="route_91" edges="B3B2 B2B3" />
    <route id="route_92" edges="B3C3 C3C2" />
    <route id="route_93" edges="B3C3 C3D3" />
    <route id="route_94" edges="B3C3 C3D3" />
    <route id="route_95" edges="B3C3 C3B3" />
    <route id="route_96" edges="C0B0 B0B1" />
    <route id="route_97" edges="C0B0 B0A0" />
    <route id="route_98" edges="C0B0 B0A0" />
    <route id="route_99" edges="C0B0 B0C0" />
    <route id="route_100" edges="C0C1 C1D1" />
    <route id="route_101" edges="C0C1 C1C2" />
    <route id="route_102" edges="C0C1 C1C2" />
    <route id="route_103" edges="C0C1 C1B1" />
    <route id="route_104" edges="C0C1 C1C0" />
    <route id="route_105" edges="C0D0 D0D1" />
    <route id="route_106" edges="C0D0 D0D1" />
    <route id="route_107" edges="C1B1 B1B2" />
    <route id="route_108" edges="C1B1 B1A1" />
    <route id="route_109" edges="C1B1 B1A1" />
    <route id="route_110" edges="C1B1 B1B0" />
    <route id="route_111" edges="C1B1 B1C1" />
    <route id="route_112" edges="C1C0 C0B0" />
    <route id="route_113" edges="C1C0 C0B0" />
    <route id="route_114" edges="C1C0 C0D0" />
    <route id="route_115" edges="C1C0 C0C1" />
    <route id="route_116" edges="C1C2 C2D2" />
    <route id="route_117" edges="C1C2 C2C3" />
    <route id="route_118" edges="C1C2 C2C3" />
    <route id="route_119" edges="C1C2 C2B2" />
    <route id="route_120" edges="C1C2 C2C1" />
    <route id="route_121" edges="C1D1 D1D0" />
    <route id="route_122" edges="C1D1 D1D0" />
    <route id="route_123" edges="C1D1 D1D2" />
    <route id="route_124" edges="C1D1 D1C1" />
    <route id="route_125" edges="C2B2 B2B3" />
    <route id="route_126" edges="C2B2 B2A2" />
    <route id="route_127" edges="C2B2 B2A2" />
    <route id="route_128" edges="C2B2 B2B1" />
    <route id="route_129" edges="C2B2 B2C2" />
    <route id="route_130" edges="C2C1 C1B1" />
    <route id="route_131" edges="C2C1 C1C0" />
    <route id="route_132" edges="C2C1 C1C0" />
    <route id="route_133" edges="C2C1 C1D1" />
    <route id="route_134" edges="C2C1 C1C2" />
    <route id="route_135" edges="C2C3 C3D3" />
    <route id="route_136" edges="C2C3 C3D3" />
    <route id="route_137" edges="C2C3 C3B3" />
    <route id="route_138" edges="C2C3 C3C2" />
    <route id="route_139" edges="C2D2 D2D1" />
    <route id="route_140" edges="C2D2 D2D1" />
    <route id="route_141" edges="C2D2 D2D3" />
    <route id="route_142" edges="C2D2 D2C2" />
    <route id="route_143" edges="C3B3 B3A3" />
    <route id="route_144" edges="C3B3 B3A3" />
    <route id="route_145" edges="C3B3 B3B2" />
    <route id="route_146" edges="C3B3 B3C3" />
    <route id="route_147" edges="C3C2 C2B2" />
    <route id="route_148" edges="C3C2 C2C1" />
    <route id="route_149" edges="C3C2 C2C1" />
    <route id="route_150" edges="C3C2 C2D2" />
    <route id="route_151" edges="C3C2 C2C3" />
    <route id="route_152" edges="C3D3 D3D2" />
    <route id="route_153" edges="C3D3 D3D2" />
    <route id="route_154" edges="D0C0 C0C1" />
    <route id="route_155" edges="D0C0 C0B0" />
    <route id="route_156" edges="D0C0 C0B0" />
    <route id="route_157" edges="D0C0 C0D0" />
    <route id="route_158" edges="D0D1 D1D2" />
    <route id="route_159" edges="D0D1 D1D2" />
    <route id="route_160" edges="D0D1 D1C1" />
    <route id="route_161" edges="D0D1 D1D0" />
    <route id="route_162" edges="D1C1 C1C2" />
    <route id="route_163" edges="D1C1 C1B1" />
    <route id="route_164" edges="D1C1 C1B1" />
    <route id="route_165" edges="D1C1 C1C0" />
    <route id="route_166" edges="D1C1 C1D1" />
    <route id="route_167" edges="D1D0 D0C0" />
    <route id="route_168" edges="D1D0 D0C0" />
    <route id="route_169" edges="D1D2 D2D3" />
    <route id="route_170" edges="D1D2 D2D3" />
    <route id="route_171" edges="D1D2 D2C2" />
    <route id="route_172" edges="D1D2 D2D1" />
    <route id="route_173" edges="D2C2 C2C3" />
    <route id="route_174" edges="D2C2 C2B2" />
    <route id="route_175" edges="D2C2 C2B2" />
    <route id="route_176" edges="D2C2 C2C1" />
    <route id="route_177" edges="D2C2 C2D2" />
    <route id="route_178" edges="D2D1 D1C1" />
    <route id="route_179" edges="D2D1 D1D0" />
    <route id="route_180" edges="D2D1 D1D0" />
    <route id="route_181" edges="D2D1 D1D2" />
    <route id="route_182" edges="D2D3 D3C3" />
    <route id="route_183" edges="D2D3 D3C3" />
    <route id="route_184" edges="D3C3 C3B3" />
    <route id="route_185" edges="D3C3 C3B3" />
    <route id="route_186" edges="D3C3 C3C2" />
    <route id="route_187" edges="D3C3 C3D3" />
    <route id="route_188" edges="D3D2 D2C2" />
    <route id="route_189" edges="D3D2 D2D1" />
    <route id="route_190" edges="D3D2 D2D1" />
    <route id="route_191" edges="D3D2 D2D3" />


    <!-- Segment 1: BALANCED (DIR_A=1.0x DIR_B=1.0x DIR_C=1.0x DIR_D=1.0x DIR_E=1.0x DIR_F=1.0x DIR_G=1.0x DIR_H=1.0x DIR_I=1.0x DIR_J=1.0x DIR_K=1.0x DIR_L=1.0x DIR_M=1.0x DIR_N=1.0x DIR_O=1.0x DIR_P=1.0x DIR_Q=1.0x DIR_R=1.0x DIR_S=1.0x DIR_T=1.0x DIR_U=1.0x DIR_V=1.0x DIR_W=1.0x DIR_X=1.0x DIR_Y=1.0x DIR_Z=1.0x DIR_[=1.0x DIR_\=1.0x DIR_]=1.0x DIR_^=1.0x DIR__=1.0x DIR_`=1.0x DIR_a=1.0x DIR_b=1.0x DIR_c=1.0x DIR_d=1.0x DIR_e=1.0x DIR_f=1.0x DIR_g=1.0x DIR_h=1.0x DIR_i=1.0x DIR_j=1.0x DIR_k=1.0x DIR_l=1.0x DIR_m=1.0x DIR_n=1.0x DIR_o=1.0x DIR_p=1.0x) | 0-600s -->
    <vehicle id="veh_0" type="passenger" route="route_14" depart="2.19" />
    <vehicle id="veh_1" type="passenger" route="route_109" depart="5.15" />
    <vehicle id="veh_2" type="passenger" route="route_23" depart="6.13" />
    <vehicle id="veh_3" type="passenger" route="route_59" depart="8.43" />
    <vehicle id="veh_4" type="passenger" route="route_163" depart="10.71" />
    <vehicle id="veh_5" type="passenger" route="route_190" depart="10.86" />
    <vehicle id="veh_6" type="passenger" route="route_46" depart="11.16" />
    <vehicle id="veh_7" type="passenger" route="route_136" depart="12.38" />
    <vehicle id="veh_8" type="passenger" route="route_170" depart="12.80" />
    <vehicle id="veh_9" type="passenger" route="route_40" depart="18.90" />
    <vehicle id="veh_10" type="passenger" route="route_13" depart="20.34" />
    <vehicle id="veh_11" type="passenger" route="route_35" depart="20.37" />
    <vehicle id="veh_12" type="passenger" route="route_96" depart="25.42" />
    <vehicle id="veh_13" type="passenger" route="route_131" depart="25.72" />
    <vehicle id="veh_14" type="passenger" route="route_170" depart="25.97" />
    <vehicle id="veh_15" type="passenger" route="route_178" depart="27.13" />
    <vehicle id="veh_16" type="passenger" route="route_134" depart="28.03" />
    <vehicle id="veh_17" type="passenger" route="route_22" depart="30.00" />
    <vehicle id="veh_18" type="passenger" route="route_89" depart="31.53" />
    <vehicle id="veh_19" type="passenger" route="route_42" depart="33.51" />
    <vehicle id="veh_20" type="passenger" route="route_163" depart="33.68" />
    <vehicle id="veh_21" type="passenger" route="route_155" depart="34.06" />
    <vehicle id="veh_22" type="passenger" route="route_96" depart="34.52" />
    <vehicle id="veh_23" type="passenger" route="route_151" depart="34.59" />
    <vehicle id="veh_24" type="passenger" route="route_19" depart="35.46" />
    <vehicle id="veh_25" type="passenger" route="route_104" depart="38.98" />
    <vehicle id="veh_26" type="passenger" route="route_41" depart="39.26" />
    <vehicle id="veh_27" type="passenger" route="route_36" depart="41.54" />
    <vehicle id="veh_28" type="passenger" route="route_50" depart="42.59" />
    <vehicle id="veh_29" type="passenger" route="route_113" depart="43.00" />
    <vehicle id="veh_30" type="passenger" route="route_173" depart="45.82" />
    <vehicle id="veh_31" type="passenger" route="route_5" depart="53.31" />
    <vehicle id="veh_32" type="passenger" route="route_149" depart="54.38" />
    <vehicle id="veh_33" type="passenger" route="route_166" depart="55.59" />
    <vehicle id="veh_34" type="passenger" route="route_10" depart="61.40" />
    <vehicle id="veh_35" type="passenger" route="route_58" depart="62.09" />
    <vehicle id="veh_36" type="passenger" route="route_8" depart="64.20" />
    <vehicle id="veh_37" type="passenger" route="route_178" depart="65.59" />
    <vehicle id="veh_38" type="passenger" route="route_89" depart="65.66" />
    <vehicle id="veh_39" type="passenger" route="route_178" depart="67.89" />
    <vehicle id="veh_40" type="passenger" route="route_45" depart="69.42" />
    <vehicle id="veh_41" type="passenger" route="route_158" depart="69.54" />
    <vehicle id="veh_42" type="passenger" route="route_94" depart="69.69" />
    <vehicle id="veh_43" type="passenger" route="route_157" depart="69.91" />
    <vehicle id="veh_44" type="passenger" route="route_88" depart="70.66" />
    <vehicle id="veh_45" type="passenger" route="route_188" depart="70.72" />
    <vehicle id="veh_46" type="passenger" route="route_18" depart="72.09" />
    <vehicle id="veh_47" type="passenger" route="route_88" depart="72.62" />
    <vehicle id="veh_48" type="passenger" route="route_166" depart="79.69" />
    <vehicle id="veh_49" type="passenger" route="route_185" depart="80.95" />
    <vehicle id="veh_50" type="passenger" route="route_40" depart="82.27" />
    <vehicle id="veh_51" type="passenger" route="route_94" depart="82.32" />
    <vehicle id="veh_52" type="passenger" route="route_73" depart="85.14" />
    <vehicle id="veh_53" type="passenger" route="route_64" depart="86.01" />
    <vehicle id="veh_54" type="passenger" route="route_64" depart="87.37" />
    <vehicle id="veh_55" type="passenger" route="route_86" depart="89.62" />
    <vehicle id="veh_56" type="passenger" route="route_1" depart="90.25" />
    <vehicle id="veh_57" type="passenger" route="route_178" depart="92.09" />
    <vehicle id="veh_58" type="passenger" route="route_94" depart="94.41" />
    <vehicle id="veh_59" type="passenger" route="route_50" depart="96.34" />
    <vehicle id="veh_60" type="passenger" route="route_141" depart="97.07" />
    <vehicle id="veh_61" type="passenger" route="route_5" depart="97.66" />
    <vehicle id="veh_62" type="passenger" route="route_46" depart="98.34" />
    <vehicle id="veh_63" type="passenger" route="route_59" depart="100.34" />
    <vehicle id="veh_64" type="passenger" route="route_131" depart="102.97" />
    <vehicle id="veh_65" type="passenger" route="route_4" depart="104.61" />
    <vehicle id="veh_66" type="passenger" route="route_143" depart="106.73" />
    <vehicle id="veh_67" type="passenger" route="route_109" depart="108.05" />
    <vehicle id="veh_68" type="passenger" route="route_97" depart="108.55" />
    <vehicle id="veh_69" type="passenger" route="route_143" depart="113.59" />
    <vehicle id="veh_70" type="passenger" route="route_142" depart="113.86" />
    <vehicle id="veh_71" type="passenger" route="route_168" depart="118.51" />
    <vehicle id="veh_72" type="passenger" route="route_19" depart="120.56" />
    <vehicle id="veh_73" type="passenger" route="route_59" depart="121.01" />
    <vehicle id="veh_74" type="passenger" route="route_119" depart="121.71" />
    <vehicle id="veh_75" type="passenger" route="route_23" depart="124.71" />
    <vehicle id="veh_76" type="passenger" route="route_90" depart="127.71" />
    <vehicle id="veh_77" type="passenger" route="route_31" depart="129.79" />
    <vehicle id="veh_78" type="passenger" route="route_46" depart="131.93" />
    <vehicle id="veh_79" type="passenger" route="route_148" depart="132.14" />
    <vehicle id="veh_80" type="passenger" route="route_148" depart="132.93" />
    <vehicle id="veh_81" type="passenger" route="route_176" depart="133.18" />
    <vehicle id="veh_82" type="passenger" route="route_156" depart="133.91" />
    <vehicle id="veh_83" type="passenger" route="route_118" depart="134.72" />
    <vehicle id="veh_84" type="passenger" route="route_26" depart="134.83" />
    <vehicle id="veh_85" type="passenger" route="route_72" depart="136.20" />
    <vehicle id="veh_86" type="passenger" route="route_108" depart="139.58" />
    <vehicle id="veh_87" type="passenger" route="route_36" depart="140.02" />
    <vehicle id="veh_88" type="passenger" route="route_136" depart="142.87" />
    <vehicle id="veh_89" type="passenger" route="route_67" depart="145.68" />
    <vehicle id="veh_90" type="passenger" route="route_73" depart="145.88" />
    <vehicle id="veh_91" type="passenger" route="route_174" depart="146.14" />
    <vehicle id="veh_92" type="passenger" route="route_98" depart="146.37" />
    <vehicle id="veh_93" type="passenger" route="route_11" depart="147.88" />
    <vehicle id="veh_94" type="passenger" route="route_82" depart="148.98" />
    <vehicle id="veh_95" type="passenger" route="route_67" depart="153.41" />
    <vehicle id="veh_96" type="passenger" route="route_155" depart="154.20" />
    <vehicle id="veh_97" type="passenger" route="route_42" depart="157.50" />
    <vehicle id="veh_98" type="passenger" route="route_73" depart="157.86" />
    <vehicle id="veh_99" type="passenger" route="route_139" depart="161.73" />
    <vehicle id="veh_100" type="passenger" route="route_190" depart="162.68" />
    <vehicle id="veh_101" type="passenger" route="route_29" depart="164.24" />
    <vehicle id="veh_102" type="passenger" route="route_50" depart="164.25" />
    <vehicle id="veh_103" type="passenger" route="route_2" depart="165.89" />
    <vehicle id="veh_104" type="passenger" route="route_95" depart="167.07" />
    <vehicle id="veh_105" type="passenger" route="route_119" depart="167.61" />
    <vehicle id="veh_106" type="passenger" route="route_57" depart="169.39" />
    <vehicle id="veh_107" type="passenger" route="route_190" depart="170.15" />
    <vehicle id="veh_108" type="passenger" route="route_56" depart="171.62" />
    <vehicle id="veh_109" type="passenger" route="route_51" depart="171.79" />
    <vehicle id="veh_110" type="passenger" route="route_183" depart="172.28" />
    <vehicle id="veh_111" type="passenger" route="route_89" depart="173.78" />
    <vehicle id="veh_112" type="passenger" route="route_12" depart="176.53" />
    <vehicle id="veh_113" type="passenger" route="route_163" depart="178.43" />
    <vehicle id="veh_114" type="passenger" route="route_30" depart="178.84" />
    <vehicle id="veh_115" type="passenger" route="route_118" depart="179.11" />
    <vehicle id="veh_116" type="passenger" route="route_184" depart="179.45" />
    <vehicle id="veh_117" type="passenger" route="route_13" depart="180.30" />
    <vehicle id="veh_118" type="passenger" route="route_15" depart="180.70" />
    <vehicle id="veh_119" type="passenger" route="route_1" depart="181.11" />
    <vehicle id="veh_120" type="passenger" route="route_160" depart="184.92" />
    <vehicle id="veh_121" type="passenger" route="route_52" depart="185.29" />
    <vehicle id="veh_122" type="passenger" route="route_127" depart="186.12" />
    <vehicle id="veh_123" type="passenger" route="route_98" depart="187.47" />
    <vehicle id="veh_124" type="passenger" route="route_153" depart="188.13" />
    <vehicle id="veh_125" type="passenger" route="route_113" depart="189.17" />
    <vehicle id="veh_126" type="passenger" route="route_50" depart="191.17" />
    <vehicle id="veh_127" type="passenger" route="route_173" depart="191.80" />
    <vehicle id="veh_128" type="passenger" route="route_18" depart="193.77" />
    <vehicle id="veh_129" type="passenger" route="route_175" depart="194.02" />
    <vehicle id="veh_130" type="passenger" route="route_76" depart="195.42" />
    <vehicle id="veh_131" type="passenger" route="route_181" depart="195.53" />
    <vehicle id="veh_132" type="passenger" route="route_170" depart="196.36" />
    <vehicle id="veh_133" type="passenger" route="route_149" depart="201.39" />
    <vehicle id="veh_134" type="passenger" route="route_86" depart="201.92" />
    <vehicle id="veh_135" type="passenger" route="route_39" depart="202.97" />
    <vehicle id="veh_136" type="passenger" route="route_138" depart="206.09" />
    <vehicle id="veh_137" type="passenger" route="route_117" depart="207.12" />
    <vehicle id="veh_138" type="passenger" route="route_184" depart="207.29" />
    <vehicle id="veh_139" type="passenger" route="route_147" depart="208.28" />
    <vehicle id="veh_140" type="passenger" route="route_18" depart="208.60" />
    <vehicle id="veh_141" type="passenger" route="route_115" depart="209.03" />
    <vehicle id="veh_142" type="passenger" route="route_33" depart="209.93" />
    <vehicle id="veh_143" type="passenger" route="route_37" depart="210.46" />
    <vehicle id="veh_144" type="passenger" route="route_54" depart="210.83" />
    <vehicle id="veh_145" type="passenger" route="route_101" depart="210.97" />
    <vehicle id="veh_146" type="passenger" route="route_109" depart="214.19" />
    <vehicle id="veh_147" type="passenger" route="route_108" depart="215.48" />
    <vehicle id="veh_148" type="passenger" route="route_102" depart="215.53" />
    <vehicle id="veh_149" type="passenger" route="route_35" depart="215.86" />
    <vehicle id="veh_150" type="passenger" route="route_158" depart="216.16" />
    <vehicle id="veh_151" type="passenger" route="route_175" depart="216.42" />
    <vehicle id="veh_152" type="passenger" route="route_84" depart="218.59" />
    <vehicle id="veh_153" type="passenger" route="route_174" depart="218.99" />
    <vehicle id="veh_154" type="passenger" route="route_149" depart="219.65" />
    <vehicle id="veh_155" type="passenger" route="route_99" depart="219.67" />
    <vehicle id="veh_156" type="passenger" route="route_79" depart="219.83" />
    <vehicle id="veh_157" type="passenger" route="route_7" depart="220.75" />
    <vehicle id="veh_158" type="passenger" route="route_88" depart="221.04" />
    <vehicle id="veh_159" type="passenger" route="route_114" depart="223.97" />
    <vehicle id="veh_160" type="passenger" route="route_16" depart="226.60" />
    <vehicle id="veh_161" type="passenger" route="route_109" depart="227.66" />
    <vehicle id="veh_162" type="passenger" route="route_73" depart="228.36" />
    <vehicle id="veh_163" type="passenger" route="route_138" depart="229.00" />
    <vehicle id="veh_164" type="passenger" route="route_190" depart="229.25" />
    <vehicle id="veh_165" type="passenger" route="route_131" depart="230.33" />
    <vehicle id="veh_166" type="passenger" route="route_41" depart="230.93" />
    <vehicle id="veh_167" type="passenger" route="route_163" depart="232.72" />
    <vehicle id="veh_168" type="passenger" route="route_5" depart="232.87" />
    <vehicle id="veh_169" type="passenger" route="route_107" depart="234.46" />
    <vehicle id="veh_170" type="passenger" route="route_86" depart="234.56" />
    <vehicle id="veh_171" type="passenger" route="route_108" depart="234.99" />
    <vehicle id="veh_172" type="passenger" route="route_61" depart="238.27" />
    <vehicle id="veh_173" type="passenger" route="route_42" depart="239.91" />
    <vehicle id="veh_174" type="passenger" route="route_146" depart="240.00" />
    <vehicle id="veh_175" type="passenger" route="route_156" depart="240.28" />
    <vehicle id="veh_176" type="passenger" route="route_93" depart="242.38" />
    <vehicle id="veh_177" type="passenger" route="route_129" depart="245.37" />
    <vehicle id="veh_178" type="passenger" route="route_98" depart="246.33" />
    <vehicle id="veh_179" type="passenger" route="route_58" depart="251.21" />
    <vehicle id="veh_180" type="passenger" route="route_72" depart="252.57" />
    <vehicle id="veh_181" type="passenger" route="route_82" depart="252.71" />
    <vehicle id="veh_182" type="passenger" route="route_37" depart="252.72" />
    <vehicle id="veh_183" type="passenger" route="route_164" depart="252.74" />
    <vehicle id="veh_184" type="passenger" route="route_114" depart="255.13" />
    <vehicle id="veh_185" type="passenger" route="route_133" depart="256.92" />
    <vehicle id="veh_186" type="passenger" route="route_12" depart="258.75" />
    <vehicle id="veh_187" type="passenger" route="route_19" depart="259.08" />
    <vehicle id="veh_188" type="passenger" route="route_39" depart="260.29" />
    <vehicle id="veh_189" type="passenger" route="route_58" depart="260.49" />
    <vehicle id="veh_190" type="passenger" route="route_1" depart="262.13" />
    <vehicle id="veh_191" type="passenger" route="route_77" depart="263.79" />
    <vehicle id="veh_192" type="passenger" route="route_166" depart="264.96" />
    <vehicle id="veh_193" type="passenger" route="route_16" depart="264.96" />
    <vehicle id="veh_194" type="passenger" route="route_2" depart="265.91" />
    <vehicle id="veh_195" type="passenger" route="route_191" depart="266.24" />
    <vehicle id="veh_196" type="passenger" route="route_85" depart="266.42" />
    <vehicle id="veh_197" type="passenger" route="route_81" depart="267.31" />
    <vehicle id="veh_198" type="passenger" route="route_46" depart="271.25" />
    <vehicle id="veh_199" type="passenger" route="route_151" depart="272.59" />
    <vehicle id="veh_200" type="passenger" route="route_71" depart="272.64" />
    <vehicle id="veh_201" type="passenger" route="route_156" depart="272.71" />
    <vehicle id="veh_202" type="passenger" route="route_11" depart="273.42" />
    <vehicle id="veh_203" type="passenger" route="route_61" depart="279.46" />
    <vehicle id="veh_204" type="passenger" route="route_191" depart="279.72" />
    <vehicle id="veh_205" type="passenger" route="route_101" depart="279.96" />
    <vehicle id="veh_206" type="passenger" route="route_36" depart="280.44" />
    <vehicle id="veh_207" type="passenger" route="route_14" depart="281.01" />
    <vehicle id="veh_208" type="passenger" route="route_180" depart="281.23" />
    <vehicle id="veh_209" type="passenger" route="route_75" depart="282.42" />
    <vehicle id="veh_210" type="passenger" route="route_146" depart="283.41" />
    <vehicle id="veh_211" type="passenger" route="route_164" depart="284.15" />
    <vehicle id="veh_212" type="passenger" route="route_1" depart="286.23" />
    <vehicle id="veh_213" type="passenger" route="route_88" depart="288.73" />
    <vehicle id="veh_214" type="passenger" route="route_181" depart="291.01" />
    <vehicle id="veh_215" type="passenger" route="route_66" depart="291.08" />
    <vehicle id="veh_216" type="passenger" route="route_173" depart="291.29" />
    <vehicle id="veh_217" type="passenger" route="route_94" depart="291.92" />
    <vehicle id="veh_218" type="passenger" route="route_19" depart="292.51" />
    <vehicle id="veh_219" type="passenger" route="route_144" depart="293.19" />
    <vehicle id="veh_220" type="passenger" route="route_134" depart="294.91" />
    <vehicle id="veh_221" type="passenger" route="route_125" depart="295.06" />
    <vehicle id="veh_222" type="passenger" route="route_54" depart="297.14" />
    <vehicle id="veh_223" type="passenger" route="route_53" depart="297.31" />
    <vehicle id="veh_224" type="passenger" route="route_76" depart="297.42" />
    <vehicle id="veh_225" type="passenger" route="route_124" depart="298.19" />
    <vehicle id="veh_226" type="passenger" route="route_131" depart="298.55" />
    <vehicle id="veh_227" type="passenger" route="route_32" depart="298.56" />
    <vehicle id="veh_228" type="passenger" route="route_34" depart="299.55" />
    <vehicle id="veh_229" type="passenger" route="route_26" depart="301.16" />
    <vehicle id="veh_230" type="passenger" route="route_94" depart="301.52" />
    <vehicle id="veh_231" type="passenger" route="route_108" depart="301.79" />
    <vehicle id="veh_232" type="passenger" route="route_23" depart="304.27" />
    <vehicle id="veh_233" type="passenger" route="route_16" depart="304.41" />
    <vehicle id="veh_234" type="passenger" route="route_59" depart="305.71" />
    <vehicle id="veh_235" type="passenger" route="route_98" depart="306.65" />
    <vehicle id="veh_236" type="passenger" route="route_10" depart="308.68" />
    <vehicle id="veh_237" type="passenger" route="route_125" depart="309.58" />
    <vehicle id="veh_238" type="passenger" route="route_180" depart="311.13" />
    <vehicle id="veh_239" type="passenger" route="route_186" depart="312.73" />
    <vehicle id="veh_240" type="passenger" route="route_79" depart="313.50" />
    <vehicle id="veh_241" type="passenger" route="route_61" depart="315.73" />
    <vehicle id="veh_242" type="passenger" route="route_12" depart="318.51" />
    <vehicle id="veh_243" type="passenger" route="route_143" depart="321.23" />
    <vehicle id="veh_244" type="passenger" route="route_136" depart="321.61" />
    <vehicle id="veh_245" type="passenger" route="route_106" depart="322.11" />
    <vehicle id="veh_246" type="passenger" route="route_18" depart="323.05" />
    <vehicle id="veh_247" type="passenger" route="route_149" depart="327.00" />
    <vehicle id="veh_248" type="passenger" route="route_73" depart="327.50" />
    <vehicle id="veh_249" type="passenger" route="route_126" depart="327.97" />
    <vehicle id="veh_250" type="passenger" route="route_165" depart="328.80" />
    <vehicle id="veh_251" type="passenger" route="route_32" depart="329.38" />
    <vehicle id="veh_252" type="passenger" route="route_108" depart="331.96" />
    <vehicle id="veh_253" type="passenger" route="route_13" depart="335.26" />
    <vehicle id="veh_254" type="passenger" route="route_39" depart="335.29" />